[Format]      =  4.0
[Frequency]   =  0
[Precision]   =  1e-008
[MinAngle]    =  15
[DoSmartMesh] =  1
[Depth]       =  300
[LengthUnits] =  millimeters
[ProblemType] =  planar
[Coordinates] =  cartesian
[ACSolver]    =  0
[PrevType]    =  0
[PrevSoln]    =  ""
[Comment]     =  "Add comments here."
[PointProps]   = 0
[BdryProps]   = 11
  <BeginBdry>
    <BdryName> = "A=0"
    <BdryType> = 0
    <A_0> = 0
    <A_1> = 0
    <A_2> = 0
    <Phi> = 0
    <c0> = 0
    <c0i> = 0
    <c1> = 0
    <c1i> = 0
    <Mu_ssd> = 0
    <Sigma_ssd> = 0
    <innerangle> = 0
    <outerangle> = 0
  <EndBdry>
  <BeginBdry>
    <BdryName> = "APr1"
    <BdryType> = 5
    <A_0> = 0
    <A_1> = 0
    <A_2> = 0
    <Phi> = 0
    <c0> = 0
    <c0i> = 0
    <c1> = 0
    <c1i> = 0
    <Mu_ssd> = 0
    <Sigma_ssd> = 0
    <innerangle> = 0
    <outerangle> = 0
  <EndBdry>
  <BeginBdry>
    <BdryName> = "APr2"
    <BdryType> = 5
    <A_0> = 0
    <A_1> = 0
    <A_2> = 0
    <Phi> = 0
    <c0> = 0
    <c0i> = 0
    <c1> = 0
    <c1i> = 0
    <Mu_ssd> = 0
    <Sigma_ssd> = 0
    <innerangle> = 0
    <outerangle> = 0
  <EndBdry>
  <BeginBdry>
    <BdryName> = "APr3"
    <BdryType> = 5
    <A_0> = 0
    <A_1> = 0
    <A_2> = 0
    <Phi> = 0
    <c0> = 0
    <c0i> = 0
    <c1> = 0
    <c1i> = 0
    <Mu_ssd> = 0
    <Sigma_ssd> = 0
    <innerangle> = 0
    <outerangle> = 0
  <EndBdry>
  <BeginBdry>
    <BdryName> = "APg1"
    <BdryType> = 5
    <A_0> = 0
    <A_1> = 0
    <A_2> = 0
    <Phi> = 0
    <c0> = 0
    <c0i> = 0
    <c1> = 0
    <c1i> = 0
    <Mu_ssd> = 0
    <Sigma_ssd> = 0
    <innerangle> = 0
    <outerangle> = 0
  <EndBdry>
  <BeginBdry>
    <BdryName> = "APg2"
    <BdryType> = 5
    <A_0> = 0
    <A_1> = 0
    <A_2> = 0
    <Phi> = 0
    <c0> = 0
    <c0i> = 0
    <c1> = 0
    <c1i> = 0
    <Mu_ssd> = 0
    <Sigma_ssd> = 0
    <innerangle> = 0
    <outerangle> = 0
  <EndBdry>
  <BeginBdry>
    <BdryName> = "APg3"
    <BdryType> = 5
    <A_0> = 0
    <A_1> = 0
    <A_2> = 0
    <Phi> = 0
    <c0> = 0
    <c0i> = 0
    <c1> = 0
    <c1i> = 0
    <Mu_ssd> = 0
    <Sigma_ssd> = 0
    <innerangle> = 0
    <outerangle> = 0
  <EndBdry>
  <BeginBdry>
    <BdryName> = "APs1"
    <BdryType> = 5
    <A_0> = 0
    <A_1> = 0
    <A_2> = 0
    <Phi> = 0
    <c0> = 0
    <c0i> = 0
    <c1> = 0
    <c1i> = 0
    <Mu_ssd> = 0
    <Sigma_ssd> = 0
    <innerangle> = 0
    <outerangle> = 0
  <EndBdry>
  <BeginBdry>
    <BdryName> = "APs2"
    <BdryType> = 5
    <A_0> = 0
    <A_1> = 0
    <A_2> = 0
    <Phi> = 0
    <c0> = 0
    <c0i> = 0
    <c1> = 0
    <c1i> = 0
    <Mu_ssd> = 0
    <Sigma_ssd> = 0
    <innerangle> = 0
    <outerangle> = 0
  <EndBdry>
  <BeginBdry>
    <BdryName> = "APs3"
    <BdryType> = 5
    <A_0> = 0
    <A_1> = 0
    <A_2> = 0
    <Phi> = 0
    <c0> = 0
    <c0i> = 0
    <c1> = 0
    <c1i> = 0
    <Mu_ssd> = 0
    <Sigma_ssd> = 0
    <innerangle> = 0
    <outerangle> = 0
  <EndBdry>
  <BeginBdry>
    <BdryName> = "AGap"
    <BdryType> = 7
    <A_0> = 0
    <A_1> = 0
    <A_2> = 0
    <Phi> = 0
    <c0> = 0
    <c0i> = 0
    <c1> = 0
    <c1i> = 0
    <Mu_ssd> = 0
    <Sigma_ssd> = 0
    <innerangle> = 1.6666666666666667
    <outerangle> = 0
  <EndBdry>
[BlockProps]  = 7
  <BeginBlock>
    <BlockName> = "M600-50A"
    <Mu_x> = 1
    <Mu_y> = 1
    <H_c> = 0
    <H_cAngle> = 0
    <J_re> = 0
    <J_im> = 0
    <Sigma> = 0
    <d_lam> = 0
    <Phi_h> = 0
    <Phi_hx> = 0
    <Phi_hy> = 0
    <LamType> = 0
    <LamFill> = 1
    <NStrands> = 0
    <WireD> = 0
    <BHPoints> = 208
      0	0
      0.0061294119999999999	8.2635015680000006
      0.012398954	15.54584049
      0.018188152999999999	21.42337126
      0.023698273999999998	26.396066560000001
      0.028962854999999999	30.670770340000001
      0.034031080999999998	34.409892589999998
      0.038937833999999998	37.72521158
      0.043710287	40.697869570000002
      0.048369641999999997	43.388214720000001
      0.052932743999999997	45.842257519999997
      0.057413198999999998	48.095830579999998
      0.061822165999999998	50.17736026
      0.066168929000000001	52.109762629999999
      0.070461307000000001	53.911772880000001
      0.074705967999999998	55.598898519999999
      0.078908651999999996	57.184116670000002
      0.083074354000000003	58.67839326
      0.087207454000000004	60.091076020000003
      0.091311829999999997	61.430196219999999
      0.095390935999999996	62.702703470000003
      0.099447875000000005	63.914650479999999
      0.10348545000000001	65.071340269999993
      0.107506212	66.177444339999994
      0.111512495	67.237098649999993
      0.115506446	68.253982050000005
      0.119490053	69.231381029999994
      0.123465163	70.172243330000001
      0.127433505	71.079222909999999
      0.131396704	71.954717669999994
      0.13535628999999999	72.800901379999999
      0.139313718	73.619750830000001
      0.14327037200000001	74.413069070000006
      0.147227575	75.182505329999998
      0.151186599	75.929572239999999
      0.15514867099999999	76.655660710000006
      0.15911497799999999	77.362052919999996
      0.16308667299999999	78.049933670000001
      0.167064883	78.720400249999997
      0.171050709	79.374471249999999
      0.17504523399999999	80.013094219999999
      0.17904952399999999	80.637152520000001
      0.183064634	81.247471390000001
      0.18709161099999999	81.844823349999999
      0.19113149500000001	82.429933079999998
      0.19518532499999999	83.003481679999993
      0.19925414	83.566110629999997
      0.203338983	84.118425299999998
      0.20744090200000001	84.6609981
      0.21156095499999999	85.194371430000004
      0.21570021	85.719060249999998
      0.21985974999999999	86.23555451
      0.224040674	86.744321339999999
      0.228244101	87.245807119999995
      0.232471172	87.740439260000002
      0.23672305199999999	88.228628009999994
      0.241000933	88.710768049999999
      0.245306038	89.187239969999993
      0.249639624	89.658411700000002
      0.25400298399999999	90.124639849999994
      0.258397449	90.586270990000003
      0.26282439699999999	91.043642790000007
      0.267285249	91.497085290000001
      0.27178147899999999	91.946921900000007
      0.27631461499999999	92.393470609999994
      0.28088624499999998	92.837044969999994
      0.28549801899999999	93.277955219999996
      0.29015165799999998	93.716509279999997
      0.294848956	94.153013889999997
      0.299591787	94.587775629999996
      0.30438211199999998	95.021102040000002
      0.30922198299999998	95.45330276
      0.31411355600000002	95.884690719999995
      0.31905909100000002	96.315583349999997
      0.324060968	96.746303900000001
      0.32912169099999999	97.177182860000002
      0.33424390300000001	97.608559369999995
      0.33943039400000002	98.040782919999998
      0.34468411100000002	98.474215020000003
      0.35000818	98.909231149999997
      0.35540591100000002	99.346222819999994
      0.36088082199999999	99.785599880000007
      0.366436651	100.2277931
      0.37207738099999998	100.67325700000001
      0.37780725700000001	101.1224732
      0.38363081700000001	101.57595360000001
      0.389552911	102.03424510000001
      0.39557873700000001	102.4979336
      0.401713873	102.9676498
      0.40796431599999999	103.44407510000001
      0.41433652900000001	103.9279489
      0.420837509	104.4200783
      0.42747497499999998	104.9213567
      0.43425898400000001	105.43288579999999
      0.44146202099999998	105.9749185
      0.44856258700000001	106.5079061
      0.45587690400000003	107.05707719999999
      0.46342101400000002	107.62377619999999
      0.47120716099999999	108.2090887
      0.47924850299999999	108.8142005
      0.48755929799999997	109.4404164
      0.496155022	110.0891769
      0.50505251799999995	110.7620768
      0.51427015700000001	111.4608879
      0.52382802100000003	112.1875854
      0.53374812500000002	112.944379
      0.54405466000000002	113.73375040000001
      0.55477427700000004	114.558498
      0.56593642099999997	115.4217907
      0.57757370900000005	116.3272333
      0.58972237000000005	117.2789456
      0.60242275199999995	118.28165920000001
      0.61571989900000001	119.3408371
      0.62966422099999997	120.4628209
      0.64431222899999996	121.65501310000001
      0.65972736300000001	122.92610569999999
      0.67598086099999999	124.28636400000001
      0.69315263800000004	125.74798269999999
      0.71133206000000004	127.3255305
      0.73061842099999996	129.03650049999999
      0.75112078999999998	130.90198509999999
      0.772956635	132.94748089999999
      0.79624826999999998	135.20380520000001
      0.82111564500000001	137.70804709999999
      0.84766332799999999	140.50436830000001
      0.87595905799999996	143.6442744
      0.90600166900000001	147.18571779999999
      0.93767904199999996	151.19014369999999
      0.97072398500000001	155.71669249999999
      1.0046871660000001	160.81373919999999
      1.0389539999999999	166.5100477
      1.0728218	172.80985770000001
      1.1056189649999999	179.69557180000001
      1.1368151129999999	187.13741469999999
      1.166076154	195.10516089999999
      1.1932571599999999	203.57694960000001
      1.2183581130000001	212.54344710000001
      1.2414717689999999	222.00841339999999
      1.262740478	231.98749659999999
      1.2823264919999999	242.50660869999999
      1.3003940249999999	253.6005657
      1.317099609	265.31223169999998
      1.332587655	277.69219570000001
      1.346989049	290.79894300000001
      1.360421377	304.69948410000001
      1.3729899480000001	319.47042970000001
      1.3847891750000001	335.19953839999999
      1.395904035	351.98780690000001
      1.406411522	369.95222330000001
      1.416382027	389.22936779999998
      1.4258806550000001	409.98013700000001
      1.4349684949999999	432.3959911
      1.443703884	456.70731569999998
      1.452143746	483.19477810000001
      1.460345062	512.205018
      1.468366627	544.17275689999997
      1.476271267	579.65265699999998
      1.484128812	619.36640990000001
      1.4920203320000001	664.27439319999996
      1.5000444559999999	715.68841520000001
      1.5083273020000001	775.45608200000004
      1.517038858	846.27605440000002
      1.52642144	932.26565330000005
      1.5368418420000001	1040.044543
      1.5488919160000001	1180.938134
      1.5635876129999999	1375.704356
      1.5827254589999999	1664.518061
      1.609038255	2120.3213700000001
      1.6429877180000001	2803.4219309999999
      1.6763000130000001	3588.174364
      1.7038913950000001	4346.5592559999996
      1.7268422349999999	5076.0393119999999
      1.746445904	5791.6494789999997
      1.7635818270000001	6506.5344940000004
      1.778835427	7231.1495919999998
      1.792609184	7974.1327339999998
      1.805191346	8743.1111569999994
      1.8167966790000001	9545.295204
      1.8275911469999999	10387.927960000001
      1.837707435	11278.663500000001
      1.8472551399999999	12225.930109999999
      1.8563277979999999	13239.325269999999
      1.865008022	14330.08987
      1.873371527	15511.71947
      1.8814906259999999	16800.793989999998
      1.88943763	18218.15107
      1.8972886259999999	19790.607090000001
      1.905128269	21553.57647
      1.913056538	23555.22162
      1.921199232	25863.341659999998
      1.92972568	28577.465530000001
      1.938881257	31851.611560000001
      1.949053186	35941.14198
      1.960921235	41311.621829999996
      1.975868577	48939.738250000002
      1.9972472800000001	61282.289870000001
      2.0280781640000001	81252.957920000001
      2.0737002590000002	113566.1776
      2.1433819129999998	165850.06529999999
      2.250195926	248560.18210000001
      2.3541325240000002	331270.29889999999
      2.4580691219999999	413980.41570000001
      2.5620057200000002	496690.53249999997
      2.665942319	579400.64930000005
      2.7698789170000002	662110.76610000001
      2.873815515	744820.88289999997
      2.9777521130000002	827530.99970000004
      3.081688711	910241.1165
  <EndBlock>
  <BeginBlock>
    <BlockName> = "ShaftAir"
    <Mu_x> = 1
    <Mu_y> = 1
    <H_c> = 0
    <H_cAngle> = 0
    <J_re> = 0
    <J_im> = 0
    <Sigma> = 0
    <d_lam> = 0
    <Phi_h> = 0
    <Phi_hx> = 0
    <Phi_hy> = 0
    <LamType> = 0
    <LamFill> = 1
    <NStrands> = 0
    <WireD> = 0
    <BHPoints> = 3
      -100	-7.9577471545947675e-011
      0	0
      100	7.9577471545947675e-011
  <EndBlock>
  <BeginBlock>
    <BlockName> = "Copper"
    <Mu_x> = 1
    <Mu_y> = 1
    <H_c> = 0
    <H_cAngle> = 0
    <J_re> = 0
    <J_im> = 0
    <Sigma> = 58
    <d_lam> = 0
    <Phi_h> = 0
    <Phi_hx> = 0
    <Phi_hy> = 0
    <LamType> = 0
    <LamFill> = 1
    <NStrands> = 0
    <WireD> = 0
    <BHPoints> = 0
  <EndBlock>
  <BeginBlock>
    <BlockName> = "Aluminium"
    <Mu_x> = 1
    <Mu_y> = 1
    <H_c> = 0
    <H_cAngle> = 0
    <J_re> = 0
    <J_im> = 0
    <Sigma> = 29
    <d_lam> = 0
    <Phi_h> = 0
    <Phi_hx> = 0
    <Phi_hy> = 0
    <LamType> = 0
    <LamFill> = 1
    <NStrands> = 0
    <WireD> = 0
    <BHPoints> = 0
  <EndBlock>
  <BeginBlock>
    <BlockName> = "Air"
    <Mu_x> = 1
    <Mu_y> = 1
    <H_c> = 0
    <H_cAngle> = 0
    <J_re> = 0
    <J_im> = 0
    <Sigma> = 0
    <d_lam> = 0
    <Phi_h> = 0
    <Phi_hx> = 0
    <Phi_hy> = 0
    <LamType> = 0
    <LamFill> = 1
    <NStrands> = 0
    <WireD> = 0
    <BHPoints> = 0
  <EndBlock>
  <BeginBlock>
    <BlockName> = "DW235"
    <Mu_x> = 1
    <Mu_y> = 1
    <H_c> = 0
    <H_cAngle> = 0
    <J_re> = 0
    <J_im> = 0
    <Sigma> = 0
    <d_lam> = 0
    <Phi_h> = 0
    <Phi_hx> = 0
    <Phi_hy> = 0
    <LamType> = 0
    <LamFill> = 1
    <NStrands> = 0
    <WireD> = 0
    <BHPoints> = 0
  <EndBlock>
  <BeginBlock>
    <BlockName> = "Air"
    <Mu_x> = 1
    <Mu_y> = 1
    <H_c> = 0
    <H_cAngle> = 0
    <J_re> = 0
    <J_im> = 0
    <Sigma> = 0
    <d_lam> = 0
    <Phi_h> = 0
    <Phi_hx> = 0
    <Phi_hy> = 0
    <LamType> = 0
    <LamFill> = 1
    <NStrands> = 0
    <WireD> = 0
    <BHPoints> = 0
  <EndBlock>
[CircuitProps]  = 6
  <BeginCircuit>
    <CircuitName> = "fase1"
    <TotalAmps_re> = 5693.9006056584194
    <TotalAmps_im> = 0
    <CircuitType> = 1
  <EndCircuit>
  <BeginCircuit>
    <CircuitName> = "fase2"
    <TotalAmps_re> = -1502.5422592451403
    <TotalAmps_im> = -0
    <CircuitType> = 1
  <EndCircuit>
  <BeginCircuit>
    <CircuitName> = "fase3"
    <TotalAmps_re> = -4191.3583464132762
    <TotalAmps_im> = -0
    <CircuitType> = 1
  <EndCircuit>
  <BeginCircuit>
    <CircuitName> = "fase1n"
    <TotalAmps_re> = -5693.9006056584194
    <TotalAmps_im> = -0
    <CircuitType> = 1
  <EndCircuit>
  <BeginCircuit>
    <CircuitName> = "fase2n"
    <TotalAmps_re> = 1502.5422592451403
    <TotalAmps_im> = 0
    <CircuitType> = 1
  <EndCircuit>
  <BeginCircuit>
    <CircuitName> = "fase3n"
    <TotalAmps_re> = 4191.3583464132762
    <TotalAmps_im> = 0
    <CircuitType> = 1
  <EndCircuit>
[NumPoints] = 141
1191.3056246777796	62.433682236758592	0	2
1176.2973581126046	61.647132315189857	0	2
1190.1854250069825	83.808365272784314	0	2
1190.1556362842848	84.376767962336118	0	2
1190.0490508938994	84.466116214341568	0	2
1175.1833502758661	82.903668119194876	0	2
1173.2693672880089	61.488442040383376	0	2
1160.6244524694885	60.825750135521496	0	2
1171.973260050215	86.208160609029235	0	2
1177.4556392420925	86.784965969198396	0	2
1188.8927266709795	100.61790109052933	0	2
1188.7848192558904	100.70711039214352	0	2
1158.7000741304003	97.545076262566099	0	2
1155.2331098982381	60.543201844008145	0	2
1144.9401455904913	60.003770442399528	0	2
1153.0293775936516	102.59291917098821	0	2
1178.2892530801164	105.2478390668993	0	2
1187.444242553383	116.47338055471154	0	2
1187.3350258351193	116.56245224302147	0	2
1142.2245119996044	111.82114618389798	0	2
1192.4258243485767	41.05899920073287	0	2
1192.4556130712745	40.490596511181067	0	2
1192.3589510022878	40.390596511185009	0	2
1177.411365949343	40.390596511184839	0	2
1174.565474525803	36.768723471737509	0	2
1180.0781132487396	36.769304359814015	0	2
1192.897282496587	24.206424008477178	0	2
1192.7992911208153	24.106424008476893	0	2
1162.5488308085767	24.106424008476893	0	2
1157.4368422028247	18.493484517028087	0	2
1182.8358561452087	18.493484517028087	0	2
1193.1140822293069	8.2863947009059729	0	2
1193.0147743383527	8.18639470090109	0	2
1147.6557791813782	8.1863947009010829	0	2
1200	0	0	20
428.56999999999999	0	0	2
1193.4262744419279	125.43415592118414	0	20
426.22224869798089	44.797763502618238	0	2
0	0	0	2
1500	0	0	1
1202	0	0	20
1491.78284305241	156.79269490148019	0	1
1195.4153182326645	125.64321284771945	0	20
1212.2079742500277	13.725723598877931	0	1
1212.2354351305048	10.579018373656869	0	1
1213.7174578419763	17.037983038888306	0	1
1478.2802623943285	21.65594396994095	0	1
1481.882488493937	18.157201119048587	0	1
1481.943569981102	12.932725608590172	0	1
1481.9736774669734	7.7079797921175173	0	1
1478.433061486101	4.1469023027385266	0	1
1213.8299565992406	4.1469023027385283	0	1
1212.2628960109819	7.4323131484358074	0	1
1347.1428827284051	4.1469023027385283	0	1
1347.0100797667758	19.364614409038037	0	1
1201.9226516127965	13.635964948037511	0	1
1201.9775733737506	7.3425544975953896	0	1
1211.783802197195	34.879579357819374	0	1
1211.8661764737758	31.73383264949274	0	1
1213.2352489895084	38.217678445830849	0	1
1477.6771648142083	47.452193632301345	0	1
1481.3399037595873	44.016851170861074	0	1
1481.492155613776	38.794237392268016	0	1
1481.6134429016522	33.570812777970062	0	1
1478.1355155454421	29.948485388804645	0	1
1213.5727109930899	25.330524457752002	0	1
1211.9485507503566	28.588085941166096	0	1
1346.8653329178894	27.657155827901732	0	1
1346.4669644860696	42.870232471676374	0	1
1201.5016125688751	34.610330746652679	0	1
1201.6663611220367	28.318837329999404	0	1
1210.9905090593995	56.022810459002358	0	1
1211.1277716400814	52.878980492491031	0	1
1212.3834769273242	59.385732377695824	0	1
1476.6239524551054	73.23398889680162	0	1
1480.3460885404904	69.863093263406114	0	1
1480.5894643843135	64.643932075427955	0	1
1480.8018945289114	59.423419769042674	0	1
1477.3877152077282	55.740945876103844	0	1
1212.9457993830281	46.506430689633348	0	1
1211.2650342207635	49.735150525979698	0	1
1346.1775148795896	51.158984715478873	0	1
1345.5137023244629	66.362791846210584	0	1
1200.7145844945578	55.574153903244621	0	1
1200.9891096559218	49.286493970221962	0	1
1209.8283364814158	77.148976469414379	0	1
1210.0204455546873	74.008020885781121	0	1
1211.1624011134456	80.535696840196053	0	1
1475.1209461357071	98.993476378850346	0	1
1478.9013455623895	95.688054380964132	0	1
1479.2357712612068	90.473935590657902	0	1
1479.5392795542468	85.257925810806057	0	1
1476.1898882601854	81.516427131314515	0	1
1211.9494127324044	67.668170612208712	0	1
1210.2125546279588	70.867065302147864	0	1
1345.0796381295427	74.645230080723479	0	1
1344.150583654844	89.835136471477639	0	1
1199.5618071262199	76.521048634198721	0	1
1199.9460252727624	70.239137466932206	0	1
1208.2976384722701	98.251642154234901	0	1
1208.5445355198462	95.114517718977623	0	1
1209.5723934993941	101.66112934927193	0	1
1473.1686036862984	124.72280948902275	0	1
1477.0061149079913	121.4838679902067	0	1
1477.4314885924957	116.27637986866623	0	1
1477.8259825824111	111.06646146245538	0	1
1474.5423995725062	107.26707769315364	0	1
1210.5838545502447	88.809298154499317	0	1
1208.7914325674221	91.977393283720332	0	1
1343.5720370916429	98.108737785780903	0	1
1342.3780236963646	113.28011644392296	0	1
1198.0436316110151	97.444634312462782	0	1
1198.5374257061674	91.170385441948213	0	1
1206.3988812974037	119.32437943707019	0	1
1206.7004911120518	116.19204174868187	0	1
1207.6139384168923	122.75559489353455	0	1
1470.7675198093025	150.41415082320776	0	1
1474.6609738829129	147.24267643641878	0	1
1475.1771659801591	142.04340523497194	0	1
1475.6625255002596	136.84116519401826	0	1
1472.4457509857043	132.98505366400786	0	1
1208.8495407988	109.92337352425706	0	1
1207.0021009267	113.05970406029354	0	1
1341.6551709957703	121.54236061890808	0	1
1340.1965623879596	136.69059019553032	0	1
1196.1605203999127	118.33853741114791	0	1
1196.7637400292094	112.07386203437125	0	1
1499.771542734587	26.178609655925268	0	1
1201.8169295779824	20.977792537614782	0	1
1499.0862405286437	52.349245053751453	0	1
1201.2677740769532	41.949195036406167	0	1
1497.9443021318607	78.503934364415755	0	1
1200.3527007749979	62.90781940401849	0	1
1496.3460753897364	104.63471061618797	0	1
1199.0719884123087	83.847281440438636	0	1
1494.2920471376183	130.73361412148728	0	1
1197.4260271062781	104.76120278268513	0	1
1201.3333333333333	0	0	20
1194.7523036357522	125.57352720554101	0	20
1200.6666666666667	0	0	20
1194.0892890388402	125.5038415633626	0	20
[NumSegments] = 118
0	1	2.8571428571428568	0	0	2
2	0	2.8571428571428568	0	0	2
5	4	2.8571428571428568	0	0	2
1	5	2.8571428571428568	0	0	2
6	7	2.8571428571428568	0	0	2
8	6	2.8571428571428568	0	0	2
9	8	2.8571428571428568	0	0	2
12	11	2.8571428571428568	0	0	2
7	12	2.8571428571428568	0	0	2
13	14	2.8571428571428568	0	0	2
15	13	2.8571428571428568	0	0	2
16	15	2.8571428571428568	0	0	2
19	18	2.8571428571428568	0	0	2
14	19	2.8571428571428568	0	0	2
20	0	2.8571428571428568	0	0	2
23	22	2.8571428571428568	0	0	2
1	23	2.8571428571428568	0	0	2
24	6	2.8571428571428568	0	0	2
25	24	2.8571428571428568	0	0	2
28	27	2.8571428571428568	0	0	2
7	28	2.8571428571428568	0	0	2
29	13	2.8571428571428568	0	0	2
30	29	2.8571428571428568	0	0	2
33	32	2.8571428571428568	0	0	2
14	33	2.8571428571428568	0	0	2
34	35	-1	3	0	2
37	36	-1	3	0	2
35	38	-1	2	0	2
38	37	-1	2	0	2
39	40	-1	10	0	1
42	41	-1	10	0	1
43	44	2.8571428571428568	0	0	1
45	43	2.8571428571428568	0	0	1
46	54	2.8571428571428568	0	0	1
48	47	2.8571428571428568	0	0	1
49	48	2.8571428571428568	0	0	1
51	53	2.8571428571428568	0	0	1
52	51	2.8571428571428568	0	0	1
44	52	2.8571428571428568	0	0	1
53	50	2.8571428571428568	0	0	1
54	45	2.8571428571428568	0	0	1
53	54	2.8571428571428568	0	0	1
43	55	2.8571428571428568	0	0	1
56	52	2.8571428571428568	0	0	1
57	58	2.8571428571428568	0	0	1
59	57	2.8571428571428568	0	0	1
60	68	2.8571428571428568	0	0	1
62	61	2.8571428571428568	0	0	1
63	62	2.8571428571428568	0	0	1
65	67	2.8571428571428568	0	0	1
66	65	2.8571428571428568	0	0	1
58	66	2.8571428571428568	0	0	1
67	64	2.8571428571428568	0	0	1
68	59	2.8571428571428568	0	0	1
67	68	2.8571428571428568	0	0	1
57	69	2.8571428571428568	0	0	1
70	66	2.8571428571428568	0	0	1
71	72	2.8571428571428568	0	0	1
73	71	2.8571428571428568	0	0	1
74	82	2.8571428571428568	0	0	1
76	75	2.8571428571428568	0	0	1
77	76	2.8571428571428568	0	0	1
79	81	2.8571428571428568	0	0	1
80	79	2.8571428571428568	0	0	1
72	80	2.8571428571428568	0	0	1
81	78	2.8571428571428568	0	0	1
82	73	2.8571428571428568	0	0	1
81	82	2.8571428571428568	0	0	1
71	83	2.8571428571428568	0	0	1
84	80	2.8571428571428568	0	0	1
85	86	2.8571428571428568	0	0	1
87	85	2.8571428571428568	0	0	1
88	96	2.8571428571428568	0	0	1
90	89	2.8571428571428568	0	0	1
91	90	2.8571428571428568	0	0	1
93	95	2.8571428571428568	0	0	1
94	93	2.8571428571428568	0	0	1
86	94	2.8571428571428568	0	0	1
95	92	2.8571428571428568	0	0	1
96	87	2.8571428571428568	0	0	1
95	96	2.8571428571428568	0	0	1
85	97	2.8571428571428568	0	0	1
98	94	2.8571428571428568	0	0	1
99	100	2.8571428571428568	0	0	1
101	99	2.8571428571428568	0	0	1
102	110	2.8571428571428568	0	0	1
104	103	2.8571428571428568	0	0	1
105	104	2.8571428571428568	0	0	1
107	109	2.8571428571428568	0	0	1
108	107	2.8571428571428568	0	0	1
100	108	2.8571428571428568	0	0	1
109	106	2.8571428571428568	0	0	1
110	101	2.8571428571428568	0	0	1
109	110	2.8571428571428568	0	0	1
99	111	2.8571428571428568	0	0	1
112	108	2.8571428571428568	0	0	1
113	114	2.8571428571428568	0	0	1
115	113	2.8571428571428568	0	0	1
116	124	2.8571428571428568	0	0	1
118	117	2.8571428571428568	0	0	1
119	118	2.8571428571428568	0	0	1
121	123	2.8571428571428568	0	0	1
122	121	2.8571428571428568	0	0	1
114	122	2.8571428571428568	0	0	1
123	120	2.8571428571428568	0	0	1
124	115	2.8571428571428568	0	0	1
123	124	2.8571428571428568	0	0	1
113	125	2.8571428571428568	0	0	1
126	122	2.8571428571428568	0	0	1
127	128	2.8571428571428568	0	0	1
129	130	2.8571428571428568	0	0	1
131	132	2.8571428571428568	0	0	1
133	134	2.8571428571428568	0	0	1
135	136	2.8571428571428568	0	0	1
137	40	0.2857142857142857	7	0	20
138	42	0.2857142857142857	7	0	20
139	34	0.2857142857142857	5	0	20
140	36	0.2857142857142857	5	0	20
[NumArcSegments] = 52
2	3	2.110464385223338	2.648339889509927	0	0	2	2.648339889509927
3	4	91.944767806724073	10	0	0	2	10
9	10	88.837506267205413	3.1917215106803702	0	0	2	3.1917215106803702
10	11	91.162493732829049	10	0	0	2	10
16	17	89.602076769230081	3.9816763576109748	0	0	2	3.9816763576109748
17	18	90.39792323057921	10	0	0	2	10
21	20	2.1104643852233385	2.6483398895085424	0	0	2	2.6483398895085424
22	21	91.944767806703979	10	0	0	2	10
26	25	88.837506267205825	3.1917215106812384	0	0	2	3.1917215106812384
27	26	91.162493732791816	10	0	0	2	10
31	30	89.60207676923109	3.9816763576147145	0	0	2	3.9816763576147145
32	31	90.397923230768754	10	0	0	2	10
34	36	5.9999999999999991	0.034104630662549006	0	0	2	0.034104630662549006
35	37	5.9999999999999991	0.095493284166084422	0	0	2	0.095493284166084422
39	127	1	2.8571428571428568	1	0	1	0.10000000000000001
40	56	0.34999999999999998	0.034047884188900826	0	0	1	0.034047884188900826
47	46	90.330162049597476	10	0	0	1	10
50	49	90.330162049598073	10	0	0	1	10
55	128	0.35000000000000009	0.034047884188900826	0	0	1	0.034047884188900826
56	55	0.29999999999999999	0.034047884188900826	0	0	1	0.034047884188900826
61	60	90.330162049598528	10	0	0	1	10
64	63	90.330162049598542	10	0	0	1	10
69	130	0.35000000000000026	0.034047884188900826	0	0	1	0.034047884188900826
70	69	0.29999999999999971	0.034047884188900826	0	0	1	0.034047884188900826
75	74	90.330162049596225	10	0	0	1	10
78	77	90.330162049597547	10	0	0	1	10
83	132	0.35000000000000092	0.034047884188900826	0	0	1	0.034047884188900826
84	83	0.29999999999999938	0.034047884188900826	0	0	1	0.034047884188900826
89	88	90.330162049598513	10	0	0	1	10
92	91	90.330162049599608	10	0	0	1	10
97	134	0.35000000000000014	0.034047884188900826	0	0	1	0.034047884188900826
98	97	0.29999999999999893	0.034047884188900826	0	0	1	0.034047884188900826
103	102	90.330162049599437	10	0	0	1	10
106	105	90.330162049597405	10	0	0	1	10
111	136	0.35000000000000014	0.034047884188900826	0	0	1	0.034047884188900826
112	111	0.30000000000000093	0.034047884188900826	0	0	1	0.034047884188900826
117	116	90.330162049601526	10	0	0	1	10
120	119	90.330162049596538	10	0	0	1	10
125	42	0.3499999999999992	0.034047884188900826	0	0	1	0.034047884188900826
126	125	0.30000000000000104	0.034047884188900826	0	0	1	0.034047884188900826
127	129	1.0000000000000002	2.8571428571428568	1	0	1	0.17000000000000001
128	70	0.35000000000000009	0.034047884188900826	0	0	1	0.034047884188900826
129	131	1.0000000000000007	2.8571428571428568	1	0	1	0.17000000000000001
130	84	0.3499999999999997	0.034047884188900826	0	0	1	0.034047884188900826
131	133	1	2.8571428571428568	1	0	1	0.20000000000000001
132	98	0.35000000000000092	0.034047884188900826	0	0	1	0.034047884188900826
133	135	0.99999999999999889	2.8571428571428568	1	0	1	0.17000000000000001
134	112	0.34999999999999687	0.034047884188900826	0	0	1	0.034047884188900826
135	41	0.99999999999999889	2.8571428571428568	1	0	1	0.11
136	126	0.34999999999999687	0.034047884188900826	0	0	1	0.034047884188900826
137	138	6	0.2857142857142857	11	0	20	0.019
139	140	6	0.2857142857142857	11	0	20	0.019
[NumHoles] = 0
[NumBlockLabels] = 34
1190.1300373950555	84.217083149820667	7	2.8571428571428568	0	0	2	1	0
1185.0448355592582	96.036294977686794	7	2.8571428571428568	0	0	2	1	0
1184.356173822873	112.76122395487744	7	2.8571428571428568	0	0	2	1	0
1192.4134628073796	40.646730741032975	7	2.8571428571428568	0	0	2	1	0
1188.5911622653352	28.360309235868087	7	2.8571428571428568	0	0	2	1	0
1189.654904237623	11.655424639611716	7	2.8571428571428568	0	0	2	1	0
786.46140265012946	41.216695604718979	1	2.8571428571428568	0	0	22	1	0
213.99132985488384	11.214810383519218	7	2.8571428571428568	0	0	2	1	0
1279.6559581890474	11.167388364772574	3	2.8571428571428568	1	0	1	1	0
1414.4970043061332	12.34412834700399	3	2.8571428571428568	1	0	1	1	0
1207.0948333268195	10.53415702135117	7	2.8571428571428568	0	0	10	1	0
1490.9432272886795	13.011264428075537	1	2.8571428571428568	0	0	12	1	0
1279.2661625878773	33.498763399640893	3	2.8571428571428568	1	0	1	1	0
1414.0661348160813	37.028624899937213	3	2.8571428571428568	1	0	1	1	0
1206.7271405471981	31.599262257778136	7	2.8571428571428568	0	0	10	1	0
1490.4890715385561	39.029829927038875	1	2.8571428571428568	0	0	12	1	0
1278.4866901210537	55.819934386667867	3	2.8571428571428568	3	0	1	-1	0
1413.2045270829985	61.701842175021582	3	2.8571428571428568	3	0	1	-1	0
1205.9918669907374	52.654742052812452	7	2.8571428571428568	0	0	10	1	0
1489.58089837855	65.036506561715981	1	2.8571428571428568	0	0	12	1	0
1277.3177782234402	78.12410208094083	3	2.8571428571428568	3	0	1	-1	0
1411.9124435609463	86.356264471260275	3	2.8571428571428568	3	0	1	-1	0
1204.889236628886	73.69418270333955	7	2.8571428571428568	0	0	10	1	0
1488.2189844470038	91.023372446471598	1	2.8571428571428568	0	0	12	1	0
1275.7597829569247	100.40447241691476	3	2.8571428571428568	2	0	1	1	0
1410.1902778310823	110.9843818127891	3	2.8571428571428568	2	0	1	1	0
1203.4195853335332	94.711175391923632	7	2.8571428571428568	0	0	10	1	0
1486.4037445960939	116.98251173021683	1	2.8571428571428568	0	0	12	1	0
1273.8131789019583	122.65425857795051	3	2.8571428571428568	2	0	1	1	0
1408.0385544817714	135.57869223648785	3	2.8571428571428568	2	0	1	1	0
1201.5833607747004	115.69931813899557	7	2.8571428571428568	0	0	10	1	0
1484.1357317654638	142.90601700765396	1	2.8571428571428568	0	0	12	1	0
1200.0198242634131	62.890374085270835	7	0.2857142857142857	0	0	20	1	0
1198.6883182170734	62.820592810280239	7	0.2857142857142857	0	0	20	1	0
