[Format]      =  4.0
[Frequency]   =  10
[Precision]   =  1e-008
[MinAngle]    =  15
[DoSmartMesh] =  1
[Depth]       =  300
[LengthUnits] =  millimeters
[ProblemType] =  planar
[Coordinates] =  cartesian
[ACSolver]    =  0
[PrevType]    =  0
[PrevSoln]    =  ""
[Comment]     =  "Add comments here."
[PointProps]   = 0
[BdryProps]   = 1
  <BeginBdry>
    <BdryName> = "A=0"
    <BdryType> = 0
    <A_0> = 0
    <A_1> = 0
    <A_2> = 0
    <Phi> = 0
    <c0> = 0
    <c0i> = 0
    <c1> = 0
    <c1i> = 0
    <Mu_ssd> = 0
    <Sigma_ssd> = 0
    <innerangle> = 0
    <outerangle> = 0
  <EndBdry>
[BlockProps]  = 7
  <BeginBlock>
    <BlockName> = "M270-35A"
    <Mu_x> = 1
    <Mu_y> = 1
    <H_c> = 0
    <H_cAngle> = 0
    <J_re> = 0
    <J_im> = 0
    <Sigma> = 0
    <d_lam> = 0
    <Phi_h> = 0
    <Phi_hx> = 0
    <Phi_hy> = 0
    <LamType> = 0
    <LamFill> = 1
    <NStrands> = 0
    <WireD> = 0
    <BHPoints> = 200
      0	0
      0.0045422769999999999	3.2767874890000002
      0.0090353559999999996	6.114592773
      0.013222249	8.4602422570000009
      0.017196487	10.462328400000001
      0.020991169	12.199266809999999
      0.024640190999999999	13.72982376
      0.028168996000000002	15.09561901
      0.031597466999999997	16.327217480000002
      0.034941272000000002	17.447599879999999
      0.038212956999999999	18.47443998
      0.041422729999999998	19.421601849999998
      0.044579012000000001	20.300151339999999
      0.047688851999999997	21.119056130000001
      0.050758219	21.885681389999998
      0.053792226999999998	22.60614816
      0.056795300999999999	23.285597330000002
      0.059771310000000001	23.928387470000001
      0.062723663999999998	24.538245379999999
      0.065655396000000005	25.11838217
      0.068569221	25.67158405
      0.071467592999999996	26.200284
      0.074352739000000001	26.70661905
      0.077226698999999996	27.19247648
      0.080091349000000006	27.65953137
      0.082948429000000004	28.109277410000001
      0.085799557999999998	28.54305239
      0.088646256000000007	28.96205934
      0.091489953999999998	29.36738437
      0.094332005999999996	29.760011540000001
      0.097173704999999999	30.140835630000002
      0.100016285	30.510672870000001
      0.102860934	30.870270300000001
      0.105708802	31.220313650000001
      0.108561001	31.561434299999998
      0.11141862	31.894215259999999
      0.114282722	32.21919639
      0.117154355	32.536878999999999
      0.120034552	32.847729870000002
      0.12292433699999999	33.152184810000001
      0.12582473199999999	33.45065185
      0.12873675200000001	33.743513989999997
      0.13166142	34.031131799999997
      0.13459976100000001	34.313845620000002
      0.137552811	34.591977620000002
      0.14052161499999999	34.865833639999998
      0.14350723800000001	35.135704879999999
      0.14651076099999999	35.401869419999997
      0.14953328699999999	35.664593680000003
      0.15257594699999999	35.924133650000002
      0.155639899	36.180736189999998
      0.158726334	36.434640119999997
      0.161836481	36.686077320000003
      0.16497160599999999	36.93527375
      0.16813302299999999	37.182450420000002
      0.17132209400000001	37.427824389999998
      0.17454023399999999	37.671609650000001
      0.17778891699999999	37.914018050000003
      0.18106968000000001	38.155260249999998
      0.18438413100000001	38.395546590000002
      0.18773395400000001	38.635088090000004
      0.191120915	38.87409736
      0.19454686800000001	39.112789630000002
      0.19801376800000001	39.351383830000003
      0.20152367299999999	39.590103640000002
      0.20507876	39.829178749999997
      0.208681327	40.068846100000002
      0.21233381500000001	40.309351300000003
      0.216038808	40.550950149999998
      0.21979905799999999	40.793910310000001
      0.22361749	41.038513199999997
      0.227497227	41.285056060000002
      0.2314416	41.53385428
      0.23545417299999999	41.785244059999997
      0.23953876299999999	42.039585369999998
      0.24369946200000001	42.297265359999997
      0.247940667	42.558702250000003
      0.25226710400000002	42.824349750000003
      0.25668386300000001	43.0947022
      0.26119642799999998	43.370300520000001
      0.26581071499999998	43.651739030000002
      0.27054201700000002	43.94020278
      0.275438138	44.23873004
      0.28051031599999998	44.548036490000001
      0.28576849199999999	44.868763260000001
      0.29122336399999998	45.201605100000002
      0.296886504	45.547319020000003
      0.30277045699999999	45.906731970000003
      0.30888884599999999	46.280749559999997
      0.31525650100000002	46.670366299999998
      0.321889598	47.076677459999999
      0.328805825	47.50089294
      0.33602457000000002	47.944353649999996
      0.34356714500000002	48.408550759999997
      0.351457032	48.895148689999999
      0.35972019	49.406012390000001
      0.36838539799999998	49.943240269999997
      0.37748466600000002	50.509203810000002
      0.38705371900000002	51.106595769999998
      0.39713256899999999	51.738489119999997
      0.40776619800000002	52.408409570000003
      0.41900536300000002	53.120425429999997
      0.43090757000000002	53.879259759999997
      0.44353822799999998	54.690431349999997
      0.45697202599999998	55.560433060000001
      0.47129457299999999	56.49695913
      0.486604327	57.509196449999997
      0.503014823	58.60819978
      0.520657166	59.807376320000003
      0.53968265500000001	61.123111049999999
      0.56026517099999995	62.575567960000001
      0.58260257699999995	64.189698669999999
      0.60691558199999995	65.996464399999994
      0.63344113800000001	68.034201780000004
      0.662415215	70.349880479999996
      0.69403682899999997	72.999622560000006
      0.72840307800000004	76.047204840000006
      0.76540934699999996	79.558509650000005
      0.80463064699999998	83.589963030000007
      0.84524547999999999	88.171938179999998
      0.88609953900000005	93.294734669999997
      0.92594964300000004	98.90894376
      0.963771241	104.9435902
      0.99893980100000002	111.3300564
      1.0312218310000001	118.0174305
      1.0606584889999999	124.9760964
      1.0874410889999999	132.19454709999999
      1.1118223309999999	139.6744898
      1.1340651580000001	147.42664859999999
      1.1544176930000001	155.46782519999999
      1.173103241	163.8190534
      1.1903180360000001	172.50453999999999
      1.2062325739999999	181.55112829999999
      1.220994358	190.98810510000001
      1.234730984	200.84723579999999
      1.2475531	211.16296399999999
      1.2595570490000001	221.97273730000001
      1.270827143	233.31744900000001
      1.281437594	245.2419931
      1.291454146	257.79594609999998
      1.3009354369999999	271.03439809999998
      1.309934159	285.01896390000002
      1.318498043	299.81902289999999
      1.326670706	315.51324579999999
      1.3344924010000001	332.19149570000002
      1.3420006879999999	349.95721329999998
      1.3492310569999999	368.93044570000001
      1.356217531	389.25173360000002
      1.362993272	411.08716509999999
      1.3695912379999999	434.63503709999998
      1.3760449050000001	460.1347695
      1.382389146	487.87903890000001
      1.3886613240000001	518.23060969999995
      1.394902732	551.64618570000005
      1.401160583	588.71104339999999
      1.4074908660000001	630.19074279999995
      1.4139626249999999	677.11087850000001
      1.420664664	730.8848299
      1.4277165590000001	793.52783980000004
      1.435287779	868.03580320000003
      1.4436331710000001	959.10175079999999
      1.453164339	1074.5891859999999
      1.464608755	1228.9034079999999
      1.479413587	1451.8548430000001
      1.5007295060000001	1812.597843
      1.531321148	2396.2922779999999
      1.5749716949999999	3340.7297119999998
      1.6351726849999999	4868.8615820000005
      1.6746062129999999	6056.7860730000002
      1.7053540309999999	7126.7301200000002
      1.7307497590000001	8135.9466300000004
      1.752580204	9119.3875740000003
      1.771845345	10098.25848
      1.789165838	11087.22133
      1.804957089	12097.58993
      1.819514077	13138.977849999999
      1.8330565510000001	14220.25051
      1.845754994	15350.15127
      1.8577465099999999	16537.778849999999
      1.869145125	17793.012470000001
      1.8800488470000001	19126.948680000001
      1.8905448170000001	20552.403480000001
      1.9007133519999999	22084.53774
      1.9106314310000001	23741.68173
      1.920376064	25546.46932
      1.930027954	27527.455720000002
      1.9396760099999999	29721.505959999999
      1.9494234969999999	32177.45292
      1.959397184	34961.935420000002
      1.969762051	38169.180130000001
      1.980746793	41938.394229999998
      1.9926918389999999	46487.096960000003
      2.0061495709999999	52181.595710000001
      2.022124024	59707.652569999998
      2.042772002	70576.241299999994
      2.0725625070000002	88161.987269999998
      2.1158769670000002	116616.322
      2.1803765140000002	162656.4026
      2.2792825830000001	237150.818
      2.3747656959999999	310949.48619999998
  <EndBlock>
  <BeginBlock>
    <BlockName> = "ShaftAir"
    <Mu_x> = 1
    <Mu_y> = 1
    <H_c> = 0
    <H_cAngle> = 0
    <J_re> = 0
    <J_im> = 0
    <Sigma> = 0
    <d_lam> = 0
    <Phi_h> = 0
    <Phi_hx> = 0
    <Phi_hy> = 0
    <LamType> = 0
    <LamFill> = 1
    <NStrands> = 0
    <WireD> = 0
    <BHPoints> = 3
      -100	-7.9577471545947675e-011
      0	0
      100	7.9577471545947675e-011
  <EndBlock>
  <BeginBlock>
    <BlockName> = "Copper"
    <Mu_x> = 1
    <Mu_y> = 1
    <H_c> = 0
    <H_cAngle> = 0
    <J_re> = 0
    <J_im> = 0
    <Sigma> = 43.939393939393931
    <d_lam> = 0
    <Phi_h> = 0
    <Phi_hx> = 0
    <Phi_hy> = 0
    <LamType> = 0
    <LamFill> = 1
    <NStrands> = 0
    <WireD> = 0
    <BHPoints> = 0
  <EndBlock>
  <BeginBlock>
    <BlockName> = "Aluminium"
    <Mu_x> = 1
    <Mu_y> = 1
    <H_c> = 0
    <H_cAngle> = 0
    <J_re> = 0
    <J_im> = 0
    <Sigma> = 29
    <d_lam> = 0
    <Phi_h> = 0
    <Phi_hx> = 0
    <Phi_hy> = 0
    <LamType> = 0
    <LamFill> = 1
    <NStrands> = 0
    <WireD> = 0
    <BHPoints> = 0
  <EndBlock>
  <BeginBlock>
    <BlockName> = "Air"
    <Mu_x> = 1
    <Mu_y> = 1
    <H_c> = 0
    <H_cAngle> = 0
    <J_re> = 0
    <J_im> = 0
    <Sigma> = 0
    <d_lam> = 0
    <Phi_h> = 0
    <Phi_hx> = 0
    <Phi_hy> = 0
    <LamType> = 0
    <LamFill> = 1
    <NStrands> = 0
    <WireD> = 0
    <BHPoints> = 0
  <EndBlock>
  <BeginBlock>
    <BlockName> = "DW235"
    <Mu_x> = 1
    <Mu_y> = 1
    <H_c> = 0
    <H_cAngle> = 0
    <J_re> = 0
    <J_im> = 0
    <Sigma> = 0
    <d_lam> = 0
    <Phi_h> = 0
    <Phi_hx> = 0
    <Phi_hy> = 0
    <LamType> = 0
    <LamFill> = 1
    <NStrands> = 0
    <WireD> = 0
    <BHPoints> = 0
  <EndBlock>
  <BeginBlock>
    <BlockName> = "Air"
    <Mu_x> = 1
    <Mu_y> = 1
    <H_c> = 0
    <H_cAngle> = 0
    <J_re> = 0
    <J_im> = 0
    <Sigma> = 0
    <d_lam> = 0
    <Phi_h> = 0
    <Phi_hx> = 0
    <Phi_hy> = 0
    <LamType> = 0
    <LamFill> = 1
    <NStrands> = 0
    <WireD> = 0
    <BHPoints> = 0
  <EndBlock>
[CircuitProps]  = 20
  <BeginCircuit>
    <CircuitName> = "conductor_1"
    <TotalAmps_re> = 5.8441341695165594
    <TotalAmps_im> = 0
    <CircuitType> = 1
  <EndCircuit>
  <BeginCircuit>
    <CircuitName> = "conductor_2"
    <TotalAmps_re> = 5.8441341695165594
    <TotalAmps_im> = 0
    <CircuitType> = 1
  <EndCircuit>
  <BeginCircuit>
    <CircuitName> = "conductor_3"
    <TotalAmps_re> = 5.8441341695165594
    <TotalAmps_im> = 0
    <CircuitType> = 1
  <EndCircuit>
  <BeginCircuit>
    <CircuitName> = "conductor_4"
    <TotalAmps_re> = 5.8441341695165594
    <TotalAmps_im> = 0
    <CircuitType> = 1
  <EndCircuit>
  <BeginCircuit>
    <CircuitName> = "conductor_5"
    <TotalAmps_re> = 5.8441341695165594
    <TotalAmps_im> = 0
    <CircuitType> = 1
  <EndCircuit>
  <BeginCircuit>
    <CircuitName> = "conductor_6"
    <TotalAmps_re> = 5.8441341695165594
    <TotalAmps_im> = 0
    <CircuitType> = 1
  <EndCircuit>
  <BeginCircuit>
    <CircuitName> = "conductor_7"
    <TotalAmps_re> = 5.8441341695165594
    <TotalAmps_im> = 0
    <CircuitType> = 1
  <EndCircuit>
  <BeginCircuit>
    <CircuitName> = "conductor_8"
    <TotalAmps_re> = 5.8441341695165594
    <TotalAmps_im> = 0
    <CircuitType> = 1
  <EndCircuit>
  <BeginCircuit>
    <CircuitName> = "conductor_9"
    <TotalAmps_re> = 5.8441341695165594
    <TotalAmps_im> = 0
    <CircuitType> = 1
  <EndCircuit>
  <BeginCircuit>
    <CircuitName> = "conductor_10"
    <TotalAmps_re> = 5.8441341695165594
    <TotalAmps_im> = 0
    <CircuitType> = 1
  <EndCircuit>
  <BeginCircuit>
    <CircuitName> = "conductor_11"
    <TotalAmps_re> = 5.8441341695165594
    <TotalAmps_im> = 0
    <CircuitType> = 1
  <EndCircuit>
  <BeginCircuit>
    <CircuitName> = "conductor_12"
    <TotalAmps_re> = 5.8441341695165594
    <TotalAmps_im> = 0
    <CircuitType> = 1
  <EndCircuit>
  <BeginCircuit>
    <CircuitName> = "conductor_13"
    <TotalAmps_re> = 5.8441341695165594
    <TotalAmps_im> = 0
    <CircuitType> = 1
  <EndCircuit>
  <BeginCircuit>
    <CircuitName> = "conductor_14"
    <TotalAmps_re> = 5.8441341695165594
    <TotalAmps_im> = 0
    <CircuitType> = 1
  <EndCircuit>
  <BeginCircuit>
    <CircuitName> = "conductor_15"
    <TotalAmps_re> = 5.8441341695165594
    <TotalAmps_im> = 0
    <CircuitType> = 1
  <EndCircuit>
  <BeginCircuit>
    <CircuitName> = "conductor_16"
    <TotalAmps_re> = 5.8441341695165594
    <TotalAmps_im> = 0
    <CircuitType> = 1
  <EndCircuit>
  <BeginCircuit>
    <CircuitName> = "conductor_17"
    <TotalAmps_re> = 5.8441341695165594
    <TotalAmps_im> = 0
    <CircuitType> = 1
  <EndCircuit>
  <BeginCircuit>
    <CircuitName> = "conductor_18"
    <TotalAmps_re> = 5.8441341695165594
    <TotalAmps_im> = 0
    <CircuitType> = 1
  <EndCircuit>
  <BeginCircuit>
    <CircuitName> = "conductor_19"
    <TotalAmps_re> = 5.8441341695165594
    <TotalAmps_im> = 0
    <CircuitType> = 1
  <EndCircuit>
  <BeginCircuit>
    <CircuitName> = "conductor_20"
    <TotalAmps_re> = 5.8441341695165594
    <TotalAmps_im> = 0
    <CircuitType> = 1
  <EndCircuit>
[NumPoints] = 95
785.52657369382075	2.0367280159141625	0	1
777.97101813826509	2.0367280159141607	0	1
785.77492303223869	2.9635803649163304	0	1
838.29699567764499	3.5136103294887455	0	1
839.94052629061389	1.8906162665068873	0	1
839.94450000000018	0	0	1
839.940526290614	-1.8906162665068855	0	1
838.2969956776451	-3.5136103294887473	0	1
785.77492303223869	-2.9635803649163304	0	1
785.52657369382086	-2.0367280159141607	0	1
777.97101813826521	-2.0367280159141616	0	1
777.93102741980624	8.1467724691730101	0	1
773.45758850422362	8.0999250139161205	0	1
777.93102741980624	-8.1467724691730101	0	1
773.45758850422362	-8.0999250139161205	0	1
835.0603929455533	1.1783013660458233	0	3
836.11869431159914	2.2366027320916464	0	3
837.17699567764498	1.1783013660458233	0	3
836.11869431159914	0.12000000000000011	0	3
835.0603929455533	-1.1783013660458233	0	3
836.11869431159914	-0.12000000000000011	0	3
837.17699567764498	-1.1783013660458233	0	3
836.11869431159914	-2.2366027320916464	0	3
833.01951511293407	0	0	3
834.07781647897991	1.0583013660458231	0	3
835.13611784502575	0	0	3
834.07781647897991	-1.0583013660458231	0	3
830.97863728031484	1.1783013660458233	0	3
832.03693864636068	2.2366027320916464	0	3
833.09524001240652	1.1783013660458233	0	3
832.03693864636068	0.12000000000000011	0	3
830.97863728031484	-1.1783013660458233	0	3
832.03693864636068	-0.12000000000000011	0	3
833.09524001240652	-1.1783013660458233	0	3
832.03693864636068	-2.2366027320916464	0	3
828.93775944769561	0	0	3
829.99606081374145	1.0583013660458231	0	3
831.05436217978729	0	0	3
829.99606081374145	-1.0583013660458231	0	3
826.89688161507638	1.1783013660458233	0	3
827.95518298112222	2.2366027320916464	0	3
829.01348434716806	1.1783013660458233	0	3
827.95518298112222	0.12000000000000011	0	3
826.89688161507638	-1.1783013660458233	0	3
827.95518298112222	-0.12000000000000011	0	3
829.01348434716806	-1.1783013660458233	0	3
827.95518298112222	-2.2366027320916464	0	3
824.85600378245715	0	0	3
825.91430514850299	1.0583013660458231	0	3
826.97260651454883	0	0	3
825.91430514850299	-1.0583013660458231	0	3
822.81512594983792	1.1783013660458233	0	3
823.87342731588376	2.2366027320916464	0	3
824.9317286819296	1.1783013660458233	0	3
823.87342731588376	0.12000000000000011	0	3
822.81512594983792	-1.1783013660458233	0	3
823.87342731588376	-0.12000000000000011	0	3
824.9317286819296	-1.1783013660458233	0	3
823.87342731588376	-2.2366027320916464	0	3
820.77424811721869	0	0	3
821.83254948326453	1.0583013660458231	0	3
822.89085084931037	0	0	3
821.83254948326453	-1.0583013660458231	0	3
818.73337028459946	1.1783013660458233	0	3
819.7916716506453	2.2366027320916464	0	3
820.84997301669114	1.1783013660458233	0	3
819.7916716506453	0.12000000000000011	0	3
818.73337028459946	-1.1783013660458233	0	3
819.7916716506453	-0.12000000000000011	0	3
820.84997301669114	-1.1783013660458233	0	3
819.7916716506453	-2.2366027320916464	0	3
816.69249245198023	0	0	3
817.75079381802607	1.0583013660458231	0	3
818.80909518407191	0	0	3
817.75079381802607	-1.0583013660458231	0	3
814.651614619361	1.1783013660458233	0	3
815.70991598540684	2.2366027320916464	0	3
816.76821735145268	1.1783013660458233	0	3
815.70991598540684	0.12000000000000011	0	3
814.651614619361	-1.1783013660458233	0	3
815.70991598540684	-0.12000000000000011	0	3
816.76821735145268	-1.1783013660458233	0	3
815.70991598540684	-2.2366027320916464	0	3
812.61073678674177	0	0	3
813.66903815278761	1.0583013660458231	0	3
814.72733951883345	0	0	3
813.66903815278761	-1.0583013660458231	0	3
810.56985895412254	1.1783013660458233	0	3
811.62816032016838	2.2366027320916464	0	3
812.68646168621422	1.1783013660458233	0	3
811.62816032016838	0.12000000000000011	0	3
810.56985895412254	-1.1783013660458233	0	3
811.62816032016838	-0.12000000000000011	0	3
812.68646168621422	-1.1783013660458233	0	3
811.62816032016838	-2.2366027320916464	0	3
[NumSegments] = 10
0	1	0.075555555555555556	0	0	1
2	0	0.075555555555555556	0	0	1
3	2	0.075555555555555556	0	0	3
5	4	0.075555555555555556	0	0	1
6	5	0.075555555555555556	0	0	1
8	7	0.075555555555555556	0	0	3
9	8	0.075555555555555556	0	0	1
10	9	0.075555555555555556	0	0	1
11	12	0.075555555555555556	0	0	1
14	13	0.075555555555555556	0	0	1
[NumArcSegments] = 86
4	3	90.479575540217795	0.66538727062438585	0	0	1	0.66538727062438585
7	6	90.479575540213887	0.66538727062432756	0	0	1	0.66538727062432756
13	10	0.45000000000000007	0.075555555555555556	1	0	1	0.075555555555555556
10	1	0.29999999999999993	0.0013911185365134036	0	0	1	0.0013911185365134036
1	11	0.44999999999999996	0.075555555555555556	1	0	1	0.075555555555555556
14	12	1.2	0.0013991643348738054	0	0	1	0.0013991643348738054
16	15	90	1.0226327280182572	0	0	3	1.0226327280182572
17	16	90	1.0226327280182419	0	0	3	1.0226327280182419
18	17	90	1.0226327280182572	0	0	3	1.0226327280182572
15	18	90	1.0226327280182419	0	0	3	1.0226327280182419
20	19	90	1.0226327280182572	0	0	3	1.0226327280182572
21	20	90	1.0226327280182419	0	0	3	1.0226327280182419
22	21	90	1.0226327280182572	0	0	3	1.0226327280182572
19	22	90	1.0226327280182419	0	0	3	1.0226327280182419
24	23	90	1.0226327280182572	0	0	3	1.0226327280182572
25	24	90	1.0226327280182419	0	0	3	1.0226327280182419
26	25	90	1.0226327280182572	0	0	3	1.0226327280182572
23	26	90	1.0226327280182419	0	0	3	1.0226327280182419
28	27	90	1.0226327280182572	0	0	3	1.0226327280182572
29	28	90	1.0226327280182419	0	0	3	1.0226327280182419
30	29	90	1.0226327280182572	0	0	3	1.0226327280182572
27	30	90	1.0226327280182419	0	0	3	1.0226327280182419
32	31	90	1.0226327280182572	0	0	3	1.0226327280182572
33	32	90	1.0226327280182419	0	0	3	1.0226327280182419
34	33	90	1.0226327280182572	0	0	3	1.0226327280182572
31	34	90	1.0226327280182419	0	0	3	1.0226327280182419
36	35	90	1.0226327280182572	0	0	3	1.0226327280182572
37	36	90	1.0226327280182419	0	0	3	1.0226327280182419
38	37	90	1.0226327280182572	0	0	3	1.0226327280182572
35	38	90	1.0226327280182419	0	0	3	1.0226327280182419
40	39	90	1.0226327280182572	0	0	3	1.0226327280182572
41	40	90	1.0226327280182419	0	0	3	1.0226327280182419
42	41	90	1.0226327280182572	0	0	3	1.0226327280182572
39	42	90	1.0226327280182419	0	0	3	1.0226327280182419
44	43	90	1.0226327280182572	0	0	3	1.0226327280182572
45	44	90	1.0226327280182419	0	0	3	1.0226327280182419
46	45	90	1.0226327280182572	0	0	3	1.0226327280182572
43	46	90	1.0226327280182419	0	0	3	1.0226327280182419
48	47	90	1.0226327280182572	0	0	3	1.0226327280182572
49	48	90	1.0226327280182419	0	0	3	1.0226327280182419
50	49	90	1.0226327280182572	0	0	3	1.0226327280182572
47	50	90	1.0226327280182419	0	0	3	1.0226327280182419
52	51	90	1.0226327280182572	0	0	3	1.0226327280182572
53	52	90	1.0226327280182419	0	0	3	1.0226327280182419
54	53	90	1.0226327280182572	0	0	3	1.0226327280182572
51	54	90	1.0226327280182419	0	0	3	1.0226327280182419
56	55	90	1.0226327280182572	0	0	3	1.0226327280182572
57	56	90	1.0226327280182419	0	0	3	1.0226327280182419
58	57	90	1.0226327280182572	0	0	3	1.0226327280182572
55	58	90	1.0226327280182419	0	0	3	1.0226327280182419
60	59	90	1.0226327280182572	0	0	3	1.0226327280182572
61	60	90	1.0226327280182419	0	0	3	1.0226327280182419
62	61	90	1.0226327280182572	0	0	3	1.0226327280182572
59	62	90	1.0226327280182419	0	0	3	1.0226327280182419
64	63	90	1.0226327280182572	0	0	3	1.0226327280182572
65	64	90	1.0226327280182419	0	0	3	1.0226327280182419
66	65	90	1.0226327280182572	0	0	3	1.0226327280182572
63	66	90	1.0226327280182419	0	0	3	1.0226327280182419
68	67	90	1.0226327280182572	0	0	3	1.0226327280182572
69	68	90	1.0226327280182419	0	0	3	1.0226327280182419
70	69	90	1.0226327280182572	0	0	3	1.0226327280182572
67	70	90	1.0226327280182419	0	0	3	1.0226327280182419
72	71	90	1.0226327280182572	0	0	3	1.0226327280182572
73	72	90	1.0226327280182419	0	0	3	1.0226327280182419
74	73	90	1.0226327280182572	0	0	3	1.0226327280182572
71	74	90	1.0226327280182419	0	0	3	1.0226327280182419
76	75	90	1.0226327280182572	0	0	3	1.0226327280182572
77	76	90	1.0226327280182419	0	0	3	1.0226327280182419
78	77	90	1.0226327280182572	0	0	3	1.0226327280182572
75	78	90	1.0226327280182419	0	0	3	1.0226327280182419
80	79	90	1.0226327280182572	0	0	3	1.0226327280182572
81	80	90	1.0226327280182419	0	0	3	1.0226327280182419
82	81	90	1.0226327280182572	0	0	3	1.0226327280182572
79	82	90	1.0226327280182419	0	0	3	1.0226327280182419
84	83	90	1.0226327280182572	0	0	3	1.0226327280182572
85	84	90	1.0226327280182419	0	0	3	1.0226327280182419
86	85	90	1.0226327280182572	0	0	3	1.0226327280182572
83	86	90	1.0226327280182419	0	0	3	1.0226327280182419
88	87	90	1.0226327280182572	0	0	3	1.0226327280182572
89	88	90	1.0226327280182419	0	0	3	1.0226327280182419
90	89	90	1.0226327280182572	0	0	3	1.0226327280182572
87	90	90	1.0226327280182419	0	0	3	1.0226327280182419
92	91	90	1.0226327280182572	0	0	3	1.0226327280182572
93	92	90	1.0226327280182419	0	0	3	1.0226327280182419
94	93	90	1.0226327280182572	0	0	3	1.0226327280182572
91	94	90	1.0226327280182419	0	0	3	1.0226327280182419
[NumHoles] = 0
[NumBlockLabels] = 22
775.73684210526312	0	7	0.075555555555555556	0	0	1	1	0
781.75146198830419	0	7	0.075555555555555556	0	0	1	1	0
836.11869431159914	1.1783013660458233	3	0.075555555555555556	1	0	3	1	0
836.11869431159914	-1.1783013660458233	3	0.075555555555555556	2	0	3	1	0
834.07781647897991	0	3	0.075555555555555556	3	0	3	1	0
832.03693864636068	1.1783013660458233	3	0.075555555555555556	4	0	3	1	0
832.03693864636068	-1.1783013660458233	3	0.075555555555555556	5	0	3	1	0
829.99606081374145	0	3	0.075555555555555556	6	0	3	1	0
827.95518298112222	1.1783013660458233	3	0.075555555555555556	7	0	3	1	0
827.95518298112222	-1.1783013660458233	3	0.075555555555555556	8	0	3	1	0
825.91430514850299	0	3	0.075555555555555556	9	0	3	1	0
823.87342731588376	1.1783013660458233	3	0.075555555555555556	10	0	3	1	0
823.87342731588376	-1.1783013660458233	3	0.075555555555555556	11	0	3	1	0
821.83254948326453	0	3	0.075555555555555556	12	0	3	1	0
819.7916716506453	1.1783013660458233	3	0.075555555555555556	13	0	3	1	0
819.7916716506453	-1.1783013660458233	3	0.075555555555555556	14	0	3	1	0
817.75079381802607	0	3	0.075555555555555556	15	0	3	1	0
815.70991598540684	1.1783013660458233	3	0.075555555555555556	16	0	3	1	0
815.70991598540684	-1.1783013660458233	3	0.075555555555555556	17	0	3	1	0
813.66903815278761	0	3	0.075555555555555556	18	0	3	1	0
811.62816032016838	1.1783013660458233	3	0.075555555555555556	19	0	3	1	0
811.62816032016838	-1.1783013660458233	3	0.075555555555555556	20	0	3	1	0
