[Format]      =  4.0
[Frequency]   =  0
[Precision]   =  1e-008
[MinAngle]    =  15
[DoSmartMesh] =  1
[Depth]       =  300
[LengthUnits] =  millimeters
[ProblemType] =  planar
[Coordinates] =  cartesian
[ACSolver]    =  0
[PrevType]    =  0
[PrevSoln]    =  ""
[Comment]     =  "Add comments here."
[PointProps]   = 0
[BdryProps]   = 11
  <BeginBdry>
    <BdryName> = "A=0"
    <BdryType> = 0
    <A_0> = 0
    <A_1> = 0
    <A_2> = 0
    <Phi> = 0
    <c0> = 0
    <c0i> = 0
    <c1> = 0
    <c1i> = 0
    <Mu_ssd> = 0
    <Sigma_ssd> = 0
    <innerangle> = 0
    <outerangle> = 0
  <EndBdry>
  <BeginBdry>
    <BdryName> = "APr1"
    <BdryType> = 5
    <A_0> = 0
    <A_1> = 0
    <A_2> = 0
    <Phi> = 0
    <c0> = 0
    <c0i> = 0
    <c1> = 0
    <c1i> = 0
    <Mu_ssd> = 0
    <Sigma_ssd> = 0
    <innerangle> = 0
    <outerangle> = 0
  <EndBdry>
  <BeginBdry>
    <BdryName> = "APr2"
    <BdryType> = 5
    <A_0> = 0
    <A_1> = 0
    <A_2> = 0
    <Phi> = 0
    <c0> = 0
    <c0i> = 0
    <c1> = 0
    <c1i> = 0
    <Mu_ssd> = 0
    <Sigma_ssd> = 0
    <innerangle> = 0
    <outerangle> = 0
  <EndBdry>
  <BeginBdry>
    <BdryName> = "APr3"
    <BdryType> = 5
    <A_0> = 0
    <A_1> = 0
    <A_2> = 0
    <Phi> = 0
    <c0> = 0
    <c0i> = 0
    <c1> = 0
    <c1i> = 0
    <Mu_ssd> = 0
    <Sigma_ssd> = 0
    <innerangle> = 0
    <outerangle> = 0
  <EndBdry>
  <BeginBdry>
    <BdryName> = "APg1"
    <BdryType> = 5
    <A_0> = 0
    <A_1> = 0
    <A_2> = 0
    <Phi> = 0
    <c0> = 0
    <c0i> = 0
    <c1> = 0
    <c1i> = 0
    <Mu_ssd> = 0
    <Sigma_ssd> = 0
    <innerangle> = 0
    <outerangle> = 0
  <EndBdry>
  <BeginBdry>
    <BdryName> = "APg2"
    <BdryType> = 5
    <A_0> = 0
    <A_1> = 0
    <A_2> = 0
    <Phi> = 0
    <c0> = 0
    <c0i> = 0
    <c1> = 0
    <c1i> = 0
    <Mu_ssd> = 0
    <Sigma_ssd> = 0
    <innerangle> = 0
    <outerangle> = 0
  <EndBdry>
  <BeginBdry>
    <BdryName> = "APg3"
    <BdryType> = 5
    <A_0> = 0
    <A_1> = 0
    <A_2> = 0
    <Phi> = 0
    <c0> = 0
    <c0i> = 0
    <c1> = 0
    <c1i> = 0
    <Mu_ssd> = 0
    <Sigma_ssd> = 0
    <innerangle> = 0
    <outerangle> = 0
  <EndBdry>
  <BeginBdry>
    <BdryName> = "APs1"
    <BdryType> = 5
    <A_0> = 0
    <A_1> = 0
    <A_2> = 0
    <Phi> = 0
    <c0> = 0
    <c0i> = 0
    <c1> = 0
    <c1i> = 0
    <Mu_ssd> = 0
    <Sigma_ssd> = 0
    <innerangle> = 0
    <outerangle> = 0
  <EndBdry>
  <BeginBdry>
    <BdryName> = "APs2"
    <BdryType> = 5
    <A_0> = 0
    <A_1> = 0
    <A_2> = 0
    <Phi> = 0
    <c0> = 0
    <c0i> = 0
    <c1> = 0
    <c1i> = 0
    <Mu_ssd> = 0
    <Sigma_ssd> = 0
    <innerangle> = 0
    <outerangle> = 0
  <EndBdry>
  <BeginBdry>
    <BdryName> = "APs3"
    <BdryType> = 5
    <A_0> = 0
    <A_1> = 0
    <A_2> = 0
    <Phi> = 0
    <c0> = 0
    <c0i> = 0
    <c1> = 0
    <c1i> = 0
    <Mu_ssd> = 0
    <Sigma_ssd> = 0
    <innerangle> = 0
    <outerangle> = 0
  <EndBdry>
  <BeginBdry>
    <BdryName> = "AGap"
    <BdryType> = 7
    <A_0> = 0
    <A_1> = 0
    <A_2> = 0
    <Phi> = 0
    <c0> = 0
    <c0i> = 0
    <c1> = 0
    <c1i> = 0
    <Mu_ssd> = 0
    <Sigma_ssd> = 0
    <innerangle> = 1
    <outerangle> = 0
  <EndBdry>
[BlockProps]  = 7
  <BeginBlock>
    <BlockName> = "M600-50A"
    <Mu_x> = 1
    <Mu_y> = 1
    <H_c> = 0
    <H_cAngle> = 0
    <J_re> = 0
    <J_im> = 0
    <Sigma> = 0
    <d_lam> = 0
    <Phi_h> = 0
    <Phi_hx> = 0
    <Phi_hy> = 0
    <LamType> = 0
    <LamFill> = 1
    <NStrands> = 0
    <WireD> = 0
    <BHPoints> = 208
      0	0
      0.0061294119999999999	8.2635015680000006
      0.012398954	15.54584049
      0.018188152999999999	21.42337126
      0.023698273999999998	26.396066560000001
      0.028962854999999999	30.670770340000001
      0.034031080999999998	34.409892589999998
      0.038937833999999998	37.72521158
      0.043710287	40.697869570000002
      0.048369641999999997	43.388214720000001
      0.052932743999999997	45.842257519999997
      0.057413198999999998	48.095830579999998
      0.061822165999999998	50.17736026
      0.066168929000000001	52.109762629999999
      0.070461307000000001	53.911772880000001
      0.074705967999999998	55.598898519999999
      0.078908651999999996	57.184116670000002
      0.083074354000000003	58.67839326
      0.087207454000000004	60.091076020000003
      0.091311829999999997	61.430196219999999
      0.095390935999999996	62.702703470000003
      0.099447875000000005	63.914650479999999
      0.10348545000000001	65.071340269999993
      0.107506212	66.177444339999994
      0.111512495	67.237098649999993
      0.115506446	68.253982050000005
      0.119490053	69.231381029999994
      0.123465163	70.172243330000001
      0.127433505	71.079222909999999
      0.131396704	71.954717669999994
      0.13535628999999999	72.800901379999999
      0.139313718	73.619750830000001
      0.14327037200000001	74.413069070000006
      0.147227575	75.182505329999998
      0.151186599	75.929572239999999
      0.15514867099999999	76.655660710000006
      0.15911497799999999	77.362052919999996
      0.16308667299999999	78.049933670000001
      0.167064883	78.720400249999997
      0.171050709	79.374471249999999
      0.17504523399999999	80.013094219999999
      0.17904952399999999	80.637152520000001
      0.183064634	81.247471390000001
      0.18709161099999999	81.844823349999999
      0.19113149500000001	82.429933079999998
      0.19518532499999999	83.003481679999993
      0.19925414	83.566110629999997
      0.203338983	84.118425299999998
      0.20744090200000001	84.6609981
      0.21156095499999999	85.194371430000004
      0.21570021	85.719060249999998
      0.21985974999999999	86.23555451
      0.224040674	86.744321339999999
      0.228244101	87.245807119999995
      0.232471172	87.740439260000002
      0.23672305199999999	88.228628009999994
      0.241000933	88.710768049999999
      0.245306038	89.187239969999993
      0.249639624	89.658411700000002
      0.25400298399999999	90.124639849999994
      0.258397449	90.586270990000003
      0.26282439699999999	91.043642790000007
      0.267285249	91.497085290000001
      0.27178147899999999	91.946921900000007
      0.27631461499999999	92.393470609999994
      0.28088624499999998	92.837044969999994
      0.28549801899999999	93.277955219999996
      0.29015165799999998	93.716509279999997
      0.294848956	94.153013889999997
      0.299591787	94.587775629999996
      0.30438211199999998	95.021102040000002
      0.30922198299999998	95.45330276
      0.31411355600000002	95.884690719999995
      0.31905909100000002	96.315583349999997
      0.324060968	96.746303900000001
      0.32912169099999999	97.177182860000002
      0.33424390300000001	97.608559369999995
      0.33943039400000002	98.040782919999998
      0.34468411100000002	98.474215020000003
      0.35000818	98.909231149999997
      0.35540591100000002	99.346222819999994
      0.36088082199999999	99.785599880000007
      0.366436651	100.2277931
      0.37207738099999998	100.67325700000001
      0.37780725700000001	101.1224732
      0.38363081700000001	101.57595360000001
      0.389552911	102.03424510000001
      0.39557873700000001	102.4979336
      0.401713873	102.9676498
      0.40796431599999999	103.44407510000001
      0.41433652900000001	103.9279489
      0.420837509	104.4200783
      0.42747497499999998	104.9213567
      0.43425898400000001	105.43288579999999
      0.44146202099999998	105.9749185
      0.44856258700000001	106.5079061
      0.45587690400000003	107.05707719999999
      0.46342101400000002	107.62377619999999
      0.47120716099999999	108.2090887
      0.47924850299999999	108.8142005
      0.48755929799999997	109.4404164
      0.496155022	110.0891769
      0.50505251799999995	110.7620768
      0.51427015700000001	111.4608879
      0.52382802100000003	112.1875854
      0.53374812500000002	112.944379
      0.54405466000000002	113.73375040000001
      0.55477427700000004	114.558498
      0.56593642099999997	115.4217907
      0.57757370900000005	116.3272333
      0.58972237000000005	117.2789456
      0.60242275199999995	118.28165920000001
      0.61571989900000001	119.3408371
      0.62966422099999997	120.4628209
      0.64431222899999996	121.65501310000001
      0.65972736300000001	122.92610569999999
      0.67598086099999999	124.28636400000001
      0.69315263800000004	125.74798269999999
      0.71133206000000004	127.3255305
      0.73061842099999996	129.03650049999999
      0.75112078999999998	130.90198509999999
      0.772956635	132.94748089999999
      0.79624826999999998	135.20380520000001
      0.82111564500000001	137.70804709999999
      0.84766332799999999	140.50436830000001
      0.87595905799999996	143.6442744
      0.90600166900000001	147.18571779999999
      0.93767904199999996	151.19014369999999
      0.97072398500000001	155.71669249999999
      1.0046871660000001	160.81373919999999
      1.0389539999999999	166.5100477
      1.0728218	172.80985770000001
      1.1056189649999999	179.69557180000001
      1.1368151129999999	187.13741469999999
      1.166076154	195.10516089999999
      1.1932571599999999	203.57694960000001
      1.2183581130000001	212.54344710000001
      1.2414717689999999	222.00841339999999
      1.262740478	231.98749659999999
      1.2823264919999999	242.50660869999999
      1.3003940249999999	253.6005657
      1.317099609	265.31223169999998
      1.332587655	277.69219570000001
      1.346989049	290.79894300000001
      1.360421377	304.69948410000001
      1.3729899480000001	319.47042970000001
      1.3847891750000001	335.19953839999999
      1.395904035	351.98780690000001
      1.406411522	369.95222330000001
      1.416382027	389.22936779999998
      1.4258806550000001	409.98013700000001
      1.4349684949999999	432.3959911
      1.443703884	456.70731569999998
      1.452143746	483.19477810000001
      1.460345062	512.205018
      1.468366627	544.17275689999997
      1.476271267	579.65265699999998
      1.484128812	619.36640990000001
      1.4920203320000001	664.27439319999996
      1.5000444559999999	715.68841520000001
      1.5083273020000001	775.45608200000004
      1.517038858	846.27605440000002
      1.52642144	932.26565330000005
      1.5368418420000001	1040.044543
      1.5488919160000001	1180.938134
      1.5635876129999999	1375.704356
      1.5827254589999999	1664.518061
      1.609038255	2120.3213700000001
      1.6429877180000001	2803.4219309999999
      1.6763000130000001	3588.174364
      1.7038913950000001	4346.5592559999996
      1.7268422349999999	5076.0393119999999
      1.746445904	5791.6494789999997
      1.7635818270000001	6506.5344940000004
      1.778835427	7231.1495919999998
      1.792609184	7974.1327339999998
      1.805191346	8743.1111569999994
      1.8167966790000001	9545.295204
      1.8275911469999999	10387.927960000001
      1.837707435	11278.663500000001
      1.8472551399999999	12225.930109999999
      1.8563277979999999	13239.325269999999
      1.865008022	14330.08987
      1.873371527	15511.71947
      1.8814906259999999	16800.793989999998
      1.88943763	18218.15107
      1.8972886259999999	19790.607090000001
      1.905128269	21553.57647
      1.913056538	23555.22162
      1.921199232	25863.341659999998
      1.92972568	28577.465530000001
      1.938881257	31851.611560000001
      1.949053186	35941.14198
      1.960921235	41311.621829999996
      1.975868577	48939.738250000002
      1.9972472800000001	61282.289870000001
      2.0280781640000001	81252.957920000001
      2.0737002590000002	113566.1776
      2.1433819129999998	165850.06529999999
      2.250195926	248560.18210000001
      2.3541325240000002	331270.29889999999
      2.4580691219999999	413980.41570000001
      2.5620057200000002	496690.53249999997
      2.665942319	579400.64930000005
      2.7698789170000002	662110.76610000001
      2.873815515	744820.88289999997
      2.9777521130000002	827530.99970000004
      3.081688711	910241.1165
  <EndBlock>
  <BeginBlock>
    <BlockName> = "ShaftAir"
    <Mu_x> = 1
    <Mu_y> = 1
    <H_c> = 0
    <H_cAngle> = 0
    <J_re> = 0
    <J_im> = 0
    <Sigma> = 0
    <d_lam> = 0
    <Phi_h> = 0
    <Phi_hx> = 0
    <Phi_hy> = 0
    <LamType> = 0
    <LamFill> = 1
    <NStrands> = 0
    <WireD> = 0
    <BHPoints> = 3
      -100	-7.9577471545947675e-011
      0	0
      100	7.9577471545947675e-011
  <EndBlock>
  <BeginBlock>
    <BlockName> = "Copper"
    <Mu_x> = 1
    <Mu_y> = 1
    <H_c> = 0
    <H_cAngle> = 0
    <J_re> = 0
    <J_im> = 0
    <Sigma> = 58
    <d_lam> = 0
    <Phi_h> = 0
    <Phi_hx> = 0
    <Phi_hy> = 0
    <LamType> = 0
    <LamFill> = 1
    <NStrands> = 0
    <WireD> = 0
    <BHPoints> = 0
  <EndBlock>
  <BeginBlock>
    <BlockName> = "Aluminium"
    <Mu_x> = 1
    <Mu_y> = 1
    <H_c> = 0
    <H_cAngle> = 0
    <J_re> = 0
    <J_im> = 0
    <Sigma> = 29
    <d_lam> = 0
    <Phi_h> = 0
    <Phi_hx> = 0
    <Phi_hy> = 0
    <LamType> = 0
    <LamFill> = 1
    <NStrands> = 0
    <WireD> = 0
    <BHPoints> = 0
  <EndBlock>
  <BeginBlock>
    <BlockName> = "Air"
    <Mu_x> = 1
    <Mu_y> = 1
    <H_c> = 0
    <H_cAngle> = 0
    <J_re> = 0
    <J_im> = 0
    <Sigma> = 0
    <d_lam> = 0
    <Phi_h> = 0
    <Phi_hx> = 0
    <Phi_hy> = 0
    <LamType> = 0
    <LamFill> = 1
    <NStrands> = 0
    <WireD> = 0
    <BHPoints> = 0
  <EndBlock>
  <BeginBlock>
    <BlockName> = "DW235"
    <Mu_x> = 1
    <Mu_y> = 1
    <H_c> = 0
    <H_cAngle> = 0
    <J_re> = 0
    <J_im> = 0
    <Sigma> = 0
    <d_lam> = 0
    <Phi_h> = 0
    <Phi_hx> = 0
    <Phi_hy> = 0
    <LamType> = 0
    <LamFill> = 1
    <NStrands> = 0
    <WireD> = 0
    <BHPoints> = 0
  <EndBlock>
  <BeginBlock>
    <BlockName> = "Air"
    <Mu_x> = 1
    <Mu_y> = 1
    <H_c> = 0
    <H_cAngle> = 0
    <J_re> = 0
    <J_im> = 0
    <Sigma> = 0
    <d_lam> = 0
    <Phi_h> = 0
    <Phi_hx> = 0
    <Phi_hy> = 0
    <LamType> = 0
    <LamFill> = 1
    <NStrands> = 0
    <WireD> = 0
    <BHPoints> = 0
  <EndBlock>
[CircuitProps]  = 6
  <BeginCircuit>
    <CircuitName> = "fase1"
    <TotalAmps_re> = -149.5727074324225
    <TotalAmps_im> = -0
    <CircuitType> = 1
  <EndCircuit>
  <BeginCircuit>
    <CircuitName> = "fase2"
    <TotalAmps_re> = -142.76353778226348
    <TotalAmps_im> = -0
    <CircuitType> = 1
  <EndCircuit>
  <BeginCircuit>
    <CircuitName> = "fase3"
    <TotalAmps_re> = 292.3362452146859
    <TotalAmps_im> = 0
    <CircuitType> = 1
  <EndCircuit>
  <BeginCircuit>
    <CircuitName> = "fase1n"
    <TotalAmps_re> = 149.5727074324225
    <TotalAmps_im> = 0
    <CircuitType> = 1
  <EndCircuit>
  <BeginCircuit>
    <CircuitName> = "fase2n"
    <TotalAmps_re> = 142.76353778226348
    <TotalAmps_im> = 0
    <CircuitType> = 1
  <EndCircuit>
  <BeginCircuit>
    <CircuitName> = "fase3n"
    <TotalAmps_re> = -292.3362452146859
    <TotalAmps_im> = -0
    <CircuitType> = 1
  <EndCircuit>
[NumPoints] = 131
761.73475320768375	23.938479008771097	0	2
759.99307043416263	23.8837444225673	0	2
761.5438686537592	29.975657010892341	0	2
766.16098504961064	30.26729087092772	0	2
766.87154740753169	31.052854567301218	0	2
765.83184732189727	31.992519327169543	0	2
759.75145927369636	31.608803200159088	0	2
757.06270927086041	23.79165411304626	0	2
753.50677360825489	23.679904332880177	0	2
756.72946152230008	34.379123310365003	0	2
763.65293318031672	34.815225379524691	0	2
766.55558162917373	38.062977723231825	0	2
766.03428831483723	38.52871863335929	0	2
753.06577182120361	37.712808733388862	0	2
750.66690245675932	23.59065778654444	0	2
745.36928402063268	23.424173420174565	0	2
750.1392292945784	40.381490062100838	0	2
762.74113641436566	41.174334855303655	0	2
766.17642215933222	45.054856864991187	0	2
764.4405080873405	46.592373836429473	0	2
744.68068747084305	45.348768032986868	0	2
761.9256377616083	17.901301006649852	0	2
766.55195517451659	17.902448256657053	0	2
767.30812645501408	17.16068402180484	0	2
766.32716512091599	16.159853871374558	0	2
760.23468159462902	16.158685644975513	0	2
757.39595701942073	13.204184915727513	0	2
764.33314986312723	13.204698054718419	0	2
767.43295343786963	10.144554087235566	0	2
766.94193289052362	9.6469999323714948	0	2
753.94777539530617	9.646999932371493	0	2
751.19457561894023	6.7998255109880397	0	2
763.82139889012979	6.7998255109880397	0	2
767.49356587642831	3.1426642017237896	0	2
765.85679634912265	1.5000012365105952	0	2
746.0578805704223	1.499578807362262	0	2
768	0	0	20
228.56999999999999	0	0	2
766.4845274329125	48.223118998512675	0	20
228.11896931685001	14.352029048815158	0	2
0	0	0	2
800	0	0	1
769	0	0	20
798.4213827426172	50.232415623450699	0	1
767.48255416134077	48.285909518041983	0	20
774.46782438466153	5.2630995409015195	0	1
774.47414912464808	4.0551742205109678	0	1
774.80247342078201	5.9906787281092484	0	1
788.74281678773377	6.1366669989838254	0	1
790.7731601285891	4.1405164224653008	0	1
788.76383137064818	2.1232139790021258	0	1
774.82272360391221	2.1232139790021254	0	1
774.48047386463463	2.847248900120416	0	1
782.63270728624036	2.1232139790021258	0	1
782.6120288767496	6.072463191181992	0	1
768.98218529576138	5.2343765393120174	0	1
768.99483477573449	2.8185258985309138	0	1
774.37024578028547	13.372870823749054	0	1
774.38921930666618	12.165077965981961	0	1
774.69725741521108	14.103914489789272	0	1
788.63530766663484	14.395875022279386	0	1
790.68644294037745	12.421095213110799	0	1
788.69834911089242	10.382862122648831	0	1
774.75800574394077	10.236873851774256	0	1
774.40819283304688	10.957285108214872	0	1
782.56756119990825	10.318658314846997	0	1
782.50552823905662	14.267474447346755	0	1
768.88520825352896	13.286704968781351	0	1
768.92315530629037	10.871119253247169	0	1
774.18774875210011	21.481175620612206	0	1
774.21936898421393	20.273647673566021	0	1
774.50708712531991	22.215603598308817	0	1
788.44131579693828	22.653504375651991	0	1
790.51301807347113	20.700311890693161	0	1
788.54637718933395	18.64137166845957	0	1
774.60832693791019	18.349411135969454	0	1
774.25098921632787	19.066119726519833	0	1
782.41659776175561	18.512971093526939	0	1
782.31321705215623	22.460921114158541	0	1
768.7039142836627	21.3375763613233	0	1
768.76715474789057	18.922520467230932	0	1
773.92035331296097	29.587124764497716	0	1
773.96461678329342	28.379994147219428	0	1
774.23198340542388	30.324856515546713	0	1
788.16086245203837	30.908649516988007	0	1
790.25290454586093	28.977258545805395	0	1
788.30793227140668	26.897836977797692	0	1
774.37370359978843	26.459936200454525	0	1
774.00888025362576	27.172863529941143	0	1
782.17983352662475	26.705253716304249	0	1
782.03511640513761	30.65190468785859	0	1
768.43832326708957	29.386107848164606	0	1
768.52685020775425	26.971846613608037	0	1
773.56808878579147	37.689829346736204	0	1
773.62499064035399	36.483228434701125	0	1
773.8719764237461	38.430783970537604	0	1
787.79397838680507	39.160405176595667	0	1
789.9061308819264	37.251027517974059	0	1
787.98304050528304	35.15135263620013	0	1
774.05416145866866	34.567559634758837	0	1
773.68189249491638	35.276627522666054	0	1
781.85729445838228	34.894607807070713	0	1
781.67125679487026	38.839526934794037	0	1
768.08846432885741	37.431416817129019	0	1
768.20226803798221	35.018214993058862	0	1
773.1309938003667	45.788400814461049	0	1
773.20052779922958	44.582461925056343	0	1
773.42710565910875	46.532497056990557	0	1
787.34070383421033	47.407866456478061	0	1
789.47273510930768	45.520711495194448	0	1
787.57173751900598	43.401013552666264	0	1
773.64973555594713	42.671392346608208	0	1
773.27006179809246	43.376523035651637	0	1
781.44901592707129	43.080135310864641	0	1
781.22167812266105	47.022889989919406	0	1
767.65437583494111	45.472621009425708	0	1
767.79344383266698	43.060743230616303	0	1
799.95613549240966	8.377427292996634	0	1
768.95783524207889	8.052801985393014	0	1
799.82454677987641	16.753935906685566	0	1
768.83134559215614	16.1047208903015	0	1
799.60524829258532	25.128607262502634	0	1
768.62054492124764	24.154873731080656	0	1
799.29826407908672	33.500522983359694	0	1
768.32545634602207	32.202377717754501	0	1
798.90362780365911	41.868764994355054	0	1
767.94611222626725	40.246350350823796	0	1
768.66666666666663	0	0	20
767.14987858519805	48.264979344865544	0	20
768.33333333333337	0	0	20
766.81720300905533	48.244049171689113	0	20
[NumSegments] = 108
0	1	0.91428571428571415	0	0	2
2	0	0.91428571428571415	0	0	2
3	2	0.91428571428571415	0	0	2
6	5	0.91428571428571415	0	0	2
1	6	0.91428571428571415	0	0	2
7	8	0.91428571428571415	0	0	2
9	7	0.91428571428571415	0	0	2
10	9	0.91428571428571415	0	0	2
13	12	0.91428571428571415	0	0	2
8	13	0.91428571428571415	0	0	2
14	15	0.91428571428571415	0	0	2
16	14	0.91428571428571415	0	0	2
17	16	0.91428571428571415	0	0	2
20	19	0.91428571428571415	0	0	2
15	20	0.91428571428571415	0	0	2
21	0	0.91428571428571415	0	0	2
22	21	0.91428571428571415	0	0	2
25	24	0.91428571428571415	0	0	2
1	25	0.91428571428571415	0	0	2
26	7	0.91428571428571415	0	0	2
27	26	0.91428571428571415	0	0	2
30	29	0.91428571428571415	0	0	2
8	30	0.91428571428571415	0	0	2
31	14	0.91428571428571415	0	0	2
32	31	0.91428571428571415	0	0	2
35	34	0.91428571428571415	0	0	2
15	35	0.91428571428571415	0	0	2
36	37	-1	4	0	2
39	38	-1	4	0	2
37	40	-1	2	0	2
40	39	-1	2	0	2
41	42	-1	10	0	1
44	43	-1	10	0	1
45	46	0.91428571428571415	0	0	1
47	45	0.91428571428571415	0	0	1
48	54	0.91428571428571415	0	0	1
51	53	0.91428571428571415	0	0	1
52	51	0.91428571428571415	0	0	1
46	52	0.91428571428571415	0	0	1
53	50	0.91428571428571415	0	0	1
54	47	0.91428571428571415	0	0	1
53	54	0.91428571428571415	0	0	1
45	55	0.91428571428571415	0	0	1
56	52	0.91428571428571415	0	0	1
57	58	0.91428571428571415	0	0	1
59	57	0.91428571428571415	0	0	1
60	66	0.91428571428571415	0	0	1
63	65	0.91428571428571415	0	0	1
64	63	0.91428571428571415	0	0	1
58	64	0.91428571428571415	0	0	1
65	62	0.91428571428571415	0	0	1
66	59	0.91428571428571415	0	0	1
65	66	0.91428571428571415	0	0	1
57	67	0.91428571428571415	0	0	1
68	64	0.91428571428571415	0	0	1
69	70	0.91428571428571415	0	0	1
71	69	0.91428571428571415	0	0	1
72	78	0.91428571428571415	0	0	1
75	77	0.91428571428571415	0	0	1
76	75	0.91428571428571415	0	0	1
70	76	0.91428571428571415	0	0	1
77	74	0.91428571428571415	0	0	1
78	71	0.91428571428571415	0	0	1
77	78	0.91428571428571415	0	0	1
69	79	0.91428571428571415	0	0	1
80	76	0.91428571428571415	0	0	1
81	82	0.91428571428571415	0	0	1
83	81	0.91428571428571415	0	0	1
84	90	0.91428571428571415	0	0	1
87	89	0.91428571428571415	0	0	1
88	87	0.91428571428571415	0	0	1
82	88	0.91428571428571415	0	0	1
89	86	0.91428571428571415	0	0	1
90	83	0.91428571428571415	0	0	1
89	90	0.91428571428571415	0	0	1
81	91	0.91428571428571415	0	0	1
92	88	0.91428571428571415	0	0	1
93	94	0.91428571428571415	0	0	1
95	93	0.91428571428571415	0	0	1
96	102	0.91428571428571415	0	0	1
99	101	0.91428571428571415	0	0	1
100	99	0.91428571428571415	0	0	1
94	100	0.91428571428571415	0	0	1
101	98	0.91428571428571415	0	0	1
102	95	0.91428571428571415	0	0	1
101	102	0.91428571428571415	0	0	1
93	103	0.91428571428571415	0	0	1
104	100	0.91428571428571415	0	0	1
105	106	0.91428571428571415	0	0	1
107	105	0.91428571428571415	0	0	1
108	114	0.91428571428571415	0	0	1
111	113	0.91428571428571415	0	0	1
112	111	0.91428571428571415	0	0	1
106	112	0.91428571428571415	0	0	1
113	110	0.91428571428571415	0	0	1
114	107	0.91428571428571415	0	0	1
113	114	0.91428571428571415	0	0	1
105	115	0.91428571428571415	0	0	1
116	112	0.91428571428571415	0	0	1
117	118	0.91428571428571415	0	0	1
119	120	0.91428571428571415	0	0	1
121	122	0.91428571428571415	0	0	1
123	124	0.91428571428571415	0	0	1
125	126	0.91428571428571415	0	0	1
127	42	0.091428571428571415	7	0	20
128	44	0.091428571428571415	7	0	20
129	36	0.091428571428571415	5	0	20
130	38	0.091428571428571415	5	0	20
[NumArcSegments] = 52
3	4	88.718805587184221	10	0	0	2	10
4	5	91.281194412806428	10	0	0	2	10
10	11	89.242661811103147	4.2237600706675869	0	0	2	4.2237600706675869
11	12	90.757338188892888	10	0	0	2	10
17	18	89.765391663382744	3.5663052457035098	0	0	2	3.5663052457035098
18	19	90.234608336619488	8.0031785557467838	0	0	2	8.0031785557467838
23	22	88.718805587224196	10	0	0	2	10
24	23	91.281194412777438	10	0	0	2	10
28	27	89.242661811099836	4.2237600705892717	0	0	2	4.2237600705892717
29	28	90.7573381888988	10	0	0	2	10
33	32	89.765391663383014	3.5663052456768338	0	0	2	3.5663052456768338
34	33	90.234608336615295	8.003178555604638	0	0	2	8.003178555604638
36	38	3.6000000000000001	0.017052315331274496	0	0	2	0.017052315331274496
37	39	3.6000000000000001	0.057296137613942401	0	0	2	0.057296137613942401
41	117	0.59999999999999998	0.91428571428571415	1	0	1	0.059999999999999998
42	56	0.20999999999999999	0.017030140668945138	0	0	1	0.017030140668945138
49	48	90.226918189211204	6.5176370038658034	0	0	1	6.5176370038658034
50	49	90.226918189214587	6.5176370038655653	0	0	1	6.5176370038655653
55	118	0.20999999999999999	0.017030140668945138	0	0	1	0.017030140668945138
56	55	0.18000000000000005	0.017030140668945138	0	0	1	0.017030140668945138
61	60	90.226918189212498	6.5176370038657474	0	0	1	6.5176370038657474
62	61	90.226918189214771	6.5176370038655644	0	0	1	6.5176370038655644
67	120	0.21000000000000021	0.017030140668945138	0	0	1	0.017030140668945138
68	67	0.18000000000000008	0.017030140668945138	0	0	1	0.017030140668945138
73	72	90.226918189211162	6.5176370038656257	0	0	1	6.5176370038656257
74	73	90.226918189213364	6.517637003865568	0	0	1	6.517637003865568
79	122	0.20999999999999963	0.017030140668945138	0	0	1	0.017030140668945138
80	79	0.17999999999999983	0.017030140668945138	0	0	1	0.017030140668945138
85	84	90.226918189212029	6.5176370038655964	0	0	1	6.5176370038655964
86	85	90.2269181892147	6.5176370038655609	0	0	1	6.5176370038655609
91	124	0.20999999999999863	0.017030140668945138	0	0	1	0.017030140668945138
92	91	0.18000000000000019	0.017030140668945138	0	0	1	0.017030140668945138
97	96	90.226918189212782	6.5176370038661284	0	0	1	6.5176370038661284
98	97	90.226918189214203	6.5176370038655795	0	0	1	6.5176370038655795
103	126	0.20999999999999988	0.017030140668945138	0	0	1	0.017030140668945138
104	103	0.18000000000000022	0.017030140668945138	0	0	1	0.017030140668945138
109	108	90.226918189210153	6.5176370038658655	0	0	1	6.5176370038658655
110	109	90.226918189216249	6.5176370038655618	0	0	1	6.5176370038655618
115	44	0.20999999999999983	0.017030140668945138	0	0	1	0.017030140668945138
116	115	0.18000000000000058	0.017030140668945138	0	0	1	0.017030140668945138
117	119	0.59999999999999964	0.91428571428571415	1	0	1	0.085999999999999993
118	68	0.21000000000000013	0.017030140668945138	0	0	1	0.017030140668945138
119	121	0.59999999999999987	0.91428571428571415	1	0	1	0.10000000000000001
120	80	0.21000000000000002	0.017030140668945138	0	0	1	0.017030140668945138
121	123	0.59999999999999931	0.91428571428571415	1	0	1	0.10000000000000001
122	92	0.20999999999999988	0.017030140668945138	0	0	1	0.017030140668945138
123	125	0.60000000000000009	0.91428571428571415	1	0	1	0.10000000000000001
124	104	0.20999999999999944	0.017030140668945138	0	0	1	0.017030140668945138
125	43	0.60000000000000087	0.91428571428571415	1	0	1	0.067000000000000004
126	116	0.21000000000000105	0.017030140668945138	0	0	1	0.017030140668945138
127	128	3.6000000000000001	0.091428571428571415	11	0	20	0.01
129	130	3.6000000000000001	0.091428571428571415	11	0	20	0.01
[NumHoles] = 0
[NumBlockLabels] = 34
766.28822351965766	31.102680983571183	7	0.91428571428571415	0	0	2	1	0
765.41463759408896	37.135310110179873	7	0.91428571428571415	0	0	2	1	0
764.45243244516826	44.273565507132922	7	0.91428571428571415	0	0	2	1	0
766.72908225014885	17.072785065674651	7	0.91428571428571415	0	0	2	1	0
766.23566365803617	10.998397649687739	7	0.91428571428571415	0	0	2	1	0
765.7241944967684	3.8138906450298329	7	0.91428571428571415	0	0	2	1	0
486.91324926171393	15.301865311331174	1	0.91428571428571415	0	0	22	1	0
114.22860725139763	3.5897786012438919	7	0.91428571428571415	0	0	2	1	0
778.54825860307142	4.0765064028015123	3	0.91428571428571415	1	0	1	1	0
786.69647755991843	4.1191707673826041	3	0.91428571428571415	1	0	1	1	0
771.73180393145958	4.0408152034363116	7	0.91428571428571415	0	0	10	1	0
795.38109696326535	4.1646437438004824	1	0.91428571428571415	0	0	12	1	0
778.46288201307425	12.229072173539418	3	0.91428571428571415	1	0	1	1	0
786.61020742589051	12.357060588654333	3	0.91428571428571415	1	0	1	1	0
771.64717484253151	12.122002489386031	7	0.91428571428571415	0	0	10	1	0
795.29387446285307	12.49347453128367	1	0.91428571428571415	0	0	12	1	0
778.29213819558481	20.380296888704375	3	0.91428571428571415	3	0	1	-1	0
786.43767661832692	20.593595318981098	3	0.91428571428571415	3	0	1	-1	0
771.47792594520865	20.201860461160233	7	0.91428571428571415	0	0	10	1	0
795.1194390269585	20.820935268495841	1	0.91428571428571415	0	0	12	1	0
778.03604587458722	28.529286674650422	3	0.91428571428571415	3	0	1	-1	0
786.17890405717515	28.827871729512417	3	0.91428571428571415	3	0	1	-1	0
771.22407579953995	28.279503071280597	7	0.91428571428571415	0	0	10	1	0
794.857809784393	29.146112755525209	1	0.91428571428571415	0	0	12	1	0
777.69463313349002	36.67514790281674	3	0.91428571428571415	2	0	1	1	0
785.83391811976242	37.058986839048004	3	0.91428571428571415	2	0	1	1	0
770.88565224305432	36.354044515208159	7	0.91428571428571415	0	0	10	1	0
794.50901542575127	37.468094042844093	1	0.91428571428571415	0	0	12	1	0
777.26793741204779	44.816987287724174	3	0.91428571428571415	2	0	1	1	0
785.40275663768443	45.286038013059866	3	0.91428571428571415	2	0	1	1	0
770.46269238770867	44.42459932848179	7	0.91428571428571415	0	0	10	1	0
794.07309420026525	45.785966531424144	1	0.91428571428571415	0	0	12	1	0
768.45396049452006	24.149638604567635	7	0.091428571428571415	0	0	20	1	0
767.78762278760951	24.128698098515549	7	0.091428571428571415	0	0	20	1	0
