[Format]      =  4.0
[Frequency]   =  0
[Precision]   =  1e-008
[MinAngle]    =  15
[DoSmartMesh] =  1
[Depth]       =  300
[LengthUnits] =  millimeters
[ProblemType] =  planar
[Coordinates] =  cartesian
[ACSolver]    =  0
[PrevType]    =  0
[PrevSoln]    =  ""
[Comment]     =  "Add comments here."
[PointProps]   = 0
[BdryProps]   = 11
  <BeginBdry>
    <BdryName> = "A=0"
    <BdryType> = 0
    <A_0> = 0
    <A_1> = 0
    <A_2> = 0
    <Phi> = 0
    <c0> = 0
    <c0i> = 0
    <c1> = 0
    <c1i> = 0
    <Mu_ssd> = 0
    <Sigma_ssd> = 0
    <innerangle> = 0
    <outerangle> = 0
  <EndBdry>
  <BeginBdry>
    <BdryName> = "APr1"
    <BdryType> = 5
    <A_0> = 0
    <A_1> = 0
    <A_2> = 0
    <Phi> = 0
    <c0> = 0
    <c0i> = 0
    <c1> = 0
    <c1i> = 0
    <Mu_ssd> = 0
    <Sigma_ssd> = 0
    <innerangle> = 0
    <outerangle> = 0
  <EndBdry>
  <BeginBdry>
    <BdryName> = "APr2"
    <BdryType> = 5
    <A_0> = 0
    <A_1> = 0
    <A_2> = 0
    <Phi> = 0
    <c0> = 0
    <c0i> = 0
    <c1> = 0
    <c1i> = 0
    <Mu_ssd> = 0
    <Sigma_ssd> = 0
    <innerangle> = 0
    <outerangle> = 0
  <EndBdry>
  <BeginBdry>
    <BdryName> = "APr3"
    <BdryType> = 5
    <A_0> = 0
    <A_1> = 0
    <A_2> = 0
    <Phi> = 0
    <c0> = 0
    <c0i> = 0
    <c1> = 0
    <c1i> = 0
    <Mu_ssd> = 0
    <Sigma_ssd> = 0
    <innerangle> = 0
    <outerangle> = 0
  <EndBdry>
  <BeginBdry>
    <BdryName> = "APg1"
    <BdryType> = 5
    <A_0> = 0
    <A_1> = 0
    <A_2> = 0
    <Phi> = 0
    <c0> = 0
    <c0i> = 0
    <c1> = 0
    <c1i> = 0
    <Mu_ssd> = 0
    <Sigma_ssd> = 0
    <innerangle> = 0
    <outerangle> = 0
  <EndBdry>
  <BeginBdry>
    <BdryName> = "APg2"
    <BdryType> = 5
    <A_0> = 0
    <A_1> = 0
    <A_2> = 0
    <Phi> = 0
    <c0> = 0
    <c0i> = 0
    <c1> = 0
    <c1i> = 0
    <Mu_ssd> = 0
    <Sigma_ssd> = 0
    <innerangle> = 0
    <outerangle> = 0
  <EndBdry>
  <BeginBdry>
    <BdryName> = "APg3"
    <BdryType> = 5
    <A_0> = 0
    <A_1> = 0
    <A_2> = 0
    <Phi> = 0
    <c0> = 0
    <c0i> = 0
    <c1> = 0
    <c1i> = 0
    <Mu_ssd> = 0
    <Sigma_ssd> = 0
    <innerangle> = 0
    <outerangle> = 0
  <EndBdry>
  <BeginBdry>
    <BdryName> = "APs1"
    <BdryType> = 5
    <A_0> = 0
    <A_1> = 0
    <A_2> = 0
    <Phi> = 0
    <c0> = 0
    <c0i> = 0
    <c1> = 0
    <c1i> = 0
    <Mu_ssd> = 0
    <Sigma_ssd> = 0
    <innerangle> = 0
    <outerangle> = 0
  <EndBdry>
  <BeginBdry>
    <BdryName> = "APs2"
    <BdryType> = 5
    <A_0> = 0
    <A_1> = 0
    <A_2> = 0
    <Phi> = 0
    <c0> = 0
    <c0i> = 0
    <c1> = 0
    <c1i> = 0
    <Mu_ssd> = 0
    <Sigma_ssd> = 0
    <innerangle> = 0
    <outerangle> = 0
  <EndBdry>
  <BeginBdry>
    <BdryName> = "APs3"
    <BdryType> = 5
    <A_0> = 0
    <A_1> = 0
    <A_2> = 0
    <Phi> = 0
    <c0> = 0
    <c0i> = 0
    <c1> = 0
    <c1i> = 0
    <Mu_ssd> = 0
    <Sigma_ssd> = 0
    <innerangle> = 0
    <outerangle> = 0
  <EndBdry>
  <BeginBdry>
    <BdryName> = "AGap"
    <BdryType> = 7
    <A_0> = 0
    <A_1> = 0
    <A_2> = 0
    <Phi> = 0
    <c0> = 0
    <c0i> = 0
    <c1> = 0
    <c1i> = 0
    <Mu_ssd> = 0
    <Sigma_ssd> = 0
    <innerangle> = 0
    <outerangle> = 0
  <EndBdry>
[BlockProps]  = 13
  <BeginBlock>
    <BlockName> = "M600-50A"
    <Mu_x> = 1
    <Mu_y> = 1
    <H_c> = 0
    <H_cAngle> = 0
    <J_re> = 0
    <J_im> = 0
    <Sigma> = 0
    <d_lam> = 0
    <Phi_h> = 0
    <Phi_hx> = 0
    <Phi_hy> = 0
    <LamType> = 0
    <LamFill> = 1
    <NStrands> = 0
    <WireD> = 0
    <BHPoints> = 208
      0	0
      0.0061294119999999999	8.2635015680000006
      0.012398954	15.54584049
      0.018188152999999999	21.42337126
      0.023698273999999998	26.396066560000001
      0.028962854999999999	30.670770340000001
      0.034031080999999998	34.409892589999998
      0.038937833999999998	37.72521158
      0.043710287	40.697869570000002
      0.048369641999999997	43.388214720000001
      0.052932743999999997	45.842257519999997
      0.057413198999999998	48.095830579999998
      0.061822165999999998	50.17736026
      0.066168929000000001	52.109762629999999
      0.070461307000000001	53.911772880000001
      0.074705967999999998	55.598898519999999
      0.078908651999999996	57.184116670000002
      0.083074354000000003	58.67839326
      0.087207454000000004	60.091076020000003
      0.091311829999999997	61.430196219999999
      0.095390935999999996	62.702703470000003
      0.099447875000000005	63.914650479999999
      0.10348545000000001	65.071340269999993
      0.107506212	66.177444339999994
      0.111512495	67.237098649999993
      0.115506446	68.253982050000005
      0.119490053	69.231381029999994
      0.123465163	70.172243330000001
      0.127433505	71.079222909999999
      0.131396704	71.954717669999994
      0.13535628999999999	72.800901379999999
      0.139313718	73.619750830000001
      0.14327037200000001	74.413069070000006
      0.147227575	75.182505329999998
      0.151186599	75.929572239999999
      0.15514867099999999	76.655660710000006
      0.15911497799999999	77.362052919999996
      0.16308667299999999	78.049933670000001
      0.167064883	78.720400249999997
      0.171050709	79.374471249999999
      0.17504523399999999	80.013094219999999
      0.17904952399999999	80.637152520000001
      0.183064634	81.247471390000001
      0.18709161099999999	81.844823349999999
      0.19113149500000001	82.429933079999998
      0.19518532499999999	83.003481679999993
      0.19925414	83.566110629999997
      0.203338983	84.118425299999998
      0.20744090200000001	84.6609981
      0.21156095499999999	85.194371430000004
      0.21570021	85.719060249999998
      0.21985974999999999	86.23555451
      0.224040674	86.744321339999999
      0.228244101	87.245807119999995
      0.232471172	87.740439260000002
      0.23672305199999999	88.228628009999994
      0.241000933	88.710768049999999
      0.245306038	89.187239969999993
      0.249639624	89.658411700000002
      0.25400298399999999	90.124639849999994
      0.258397449	90.586270990000003
      0.26282439699999999	91.043642790000007
      0.267285249	91.497085290000001
      0.27178147899999999	91.946921900000007
      0.27631461499999999	92.393470609999994
      0.28088624499999998	92.837044969999994
      0.28549801899999999	93.277955219999996
      0.29015165799999998	93.716509279999997
      0.294848956	94.153013889999997
      0.299591787	94.587775629999996
      0.30438211199999998	95.021102040000002
      0.30922198299999998	95.45330276
      0.31411355600000002	95.884690719999995
      0.31905909100000002	96.315583349999997
      0.324060968	96.746303900000001
      0.32912169099999999	97.177182860000002
      0.33424390300000001	97.608559369999995
      0.33943039400000002	98.040782919999998
      0.34468411100000002	98.474215020000003
      0.35000818	98.909231149999997
      0.35540591100000002	99.346222819999994
      0.36088082199999999	99.785599880000007
      0.366436651	100.2277931
      0.37207738099999998	100.67325700000001
      0.37780725700000001	101.1224732
      0.38363081700000001	101.57595360000001
      0.389552911	102.03424510000001
      0.39557873700000001	102.4979336
      0.401713873	102.9676498
      0.40796431599999999	103.44407510000001
      0.41433652900000001	103.9279489
      0.420837509	104.4200783
      0.42747497499999998	104.9213567
      0.43425898400000001	105.43288579999999
      0.44146202099999998	105.9749185
      0.44856258700000001	106.5079061
      0.45587690400000003	107.05707719999999
      0.46342101400000002	107.62377619999999
      0.47120716099999999	108.2090887
      0.47924850299999999	108.8142005
      0.48755929799999997	109.4404164
      0.496155022	110.0891769
      0.50505251799999995	110.7620768
      0.51427015700000001	111.4608879
      0.52382802100000003	112.1875854
      0.53374812500000002	112.944379
      0.54405466000000002	113.73375040000001
      0.55477427700000004	114.558498
      0.56593642099999997	115.4217907
      0.57757370900000005	116.3272333
      0.58972237000000005	117.2789456
      0.60242275199999995	118.28165920000001
      0.61571989900000001	119.3408371
      0.62966422099999997	120.4628209
      0.64431222899999996	121.65501310000001
      0.65972736300000001	122.92610569999999
      0.67598086099999999	124.28636400000001
      0.69315263800000004	125.74798269999999
      0.71133206000000004	127.3255305
      0.73061842099999996	129.03650049999999
      0.75112078999999998	130.90198509999999
      0.772956635	132.94748089999999
      0.79624826999999998	135.20380520000001
      0.82111564500000001	137.70804709999999
      0.84766332799999999	140.50436830000001
      0.87595905799999996	143.6442744
      0.90600166900000001	147.18571779999999
      0.93767904199999996	151.19014369999999
      0.97072398500000001	155.71669249999999
      1.0046871660000001	160.81373919999999
      1.0389539999999999	166.5100477
      1.0728218	172.80985770000001
      1.1056189649999999	179.69557180000001
      1.1368151129999999	187.13741469999999
      1.166076154	195.10516089999999
      1.1932571599999999	203.57694960000001
      1.2183581130000001	212.54344710000001
      1.2414717689999999	222.00841339999999
      1.262740478	231.98749659999999
      1.2823264919999999	242.50660869999999
      1.3003940249999999	253.6005657
      1.317099609	265.31223169999998
      1.332587655	277.69219570000001
      1.346989049	290.79894300000001
      1.360421377	304.69948410000001
      1.3729899480000001	319.47042970000001
      1.3847891750000001	335.19953839999999
      1.395904035	351.98780690000001
      1.406411522	369.95222330000001
      1.416382027	389.22936779999998
      1.4258806550000001	409.98013700000001
      1.4349684949999999	432.3959911
      1.443703884	456.70731569999998
      1.452143746	483.19477810000001
      1.460345062	512.205018
      1.468366627	544.17275689999997
      1.476271267	579.65265699999998
      1.484128812	619.36640990000001
      1.4920203320000001	664.27439319999996
      1.5000444559999999	715.68841520000001
      1.5083273020000001	775.45608200000004
      1.517038858	846.27605440000002
      1.52642144	932.26565330000005
      1.5368418420000001	1040.044543
      1.5488919160000001	1180.938134
      1.5635876129999999	1375.704356
      1.5827254589999999	1664.518061
      1.609038255	2120.3213700000001
      1.6429877180000001	2803.4219309999999
      1.6763000130000001	3588.174364
      1.7038913950000001	4346.5592559999996
      1.7268422349999999	5076.0393119999999
      1.746445904	5791.6494789999997
      1.7635818270000001	6506.5344940000004
      1.778835427	7231.1495919999998
      1.792609184	7974.1327339999998
      1.805191346	8743.1111569999994
      1.8167966790000001	9545.295204
      1.8275911469999999	10387.927960000001
      1.837707435	11278.663500000001
      1.8472551399999999	12225.930109999999
      1.8563277979999999	13239.325269999999
      1.865008022	14330.08987
      1.873371527	15511.71947
      1.8814906259999999	16800.793989999998
      1.88943763	18218.15107
      1.8972886259999999	19790.607090000001
      1.905128269	21553.57647
      1.913056538	23555.22162
      1.921199232	25863.341659999998
      1.92972568	28577.465530000001
      1.938881257	31851.611560000001
      1.949053186	35941.14198
      1.960921235	41311.621829999996
      1.975868577	48939.738250000002
      1.9972472800000001	61282.289870000001
      2.0280781640000001	81252.957920000001
      2.0737002590000002	113566.1776
      2.1433819129999998	165850.06529999999
      2.250195926	248560.18210000001
      2.3541325240000002	331270.29889999999
      2.4580691219999999	413980.41570000001
      2.5620057200000002	496690.53249999997
      2.665942319	579400.64930000005
      2.7698789170000002	662110.76610000001
      2.873815515	744820.88289999997
      2.9777521130000002	827530.99970000004
      3.081688711	910241.1165
  <EndBlock>
  <BeginBlock>
    <BlockName> = "ShaftAir"
    <Mu_x> = 1
    <Mu_y> = 1
    <H_c> = 0
    <H_cAngle> = 0
    <J_re> = 0
    <J_im> = 0
    <Sigma> = 0
    <d_lam> = 0
    <Phi_h> = 0
    <Phi_hx> = 0
    <Phi_hy> = 0
    <LamType> = 0
    <LamFill> = 1
    <NStrands> = 0
    <WireD> = 0
    <BHPoints> = 3
      -100	-7.9577471545947675e-011
      0	0
      100	7.9577471545947675e-011
  <EndBlock>
  <BeginBlock>
    <BlockName> = "Copper"
    <Mu_x> = 1
    <Mu_y> = 1
    <H_c> = 0
    <H_cAngle> = 0
    <J_re> = 0
    <J_im> = 0
    <Sigma> = 58
    <d_lam> = 0
    <Phi_h> = 0
    <Phi_hx> = 0
    <Phi_hy> = 0
    <LamType> = 0
    <LamFill> = 1
    <NStrands> = 0
    <WireD> = 0
    <BHPoints> = 0
  <EndBlock>
  <BeginBlock>
    <BlockName> = "Aluminium"
    <Mu_x> = 1
    <Mu_y> = 1
    <H_c> = 0
    <H_cAngle> = 0
    <J_re> = 0
    <J_im> = 0
    <Sigma> = 29
    <d_lam> = 0
    <Phi_h> = 0
    <Phi_hx> = 0
    <Phi_hy> = 0
    <LamType> = 0
    <LamFill> = 1
    <NStrands> = 0
    <WireD> = 0
    <BHPoints> = 0
  <EndBlock>
  <BeginBlock>
    <BlockName> = "FB14H"
    <Mu_x> = 1.05
    <Mu_y> = 1.05
    <H_c> = 356200
    <H_cAngle> = 0
    <J_re> = 0
    <J_im> = 0
    <Sigma> = 0
    <d_lam> = 0
    <Phi_h> = 0
    <Phi_hx> = 0
    <Phi_hy> = 0
    <LamType> = 0
    <LamFill> = 1
    <NStrands> = 0
    <WireD> = 0
    <BHPoints> = 0
  <EndBlock>
  <BeginBlock>
    <BlockName> = "DW235"
    <Mu_x> = 1
    <Mu_y> = 1
    <H_c> = 0
    <H_cAngle> = 0
    <J_re> = 0
    <J_im> = 0
    <Sigma> = 0
    <d_lam> = 0
    <Phi_h> = 0
    <Phi_hx> = 0
    <Phi_hy> = 0
    <LamType> = 0
    <LamFill> = 1
    <NStrands> = 0
    <WireD> = 0
    <BHPoints> = 0
  <EndBlock>
  <BeginBlock>
    <BlockName> = "Air"
    <Mu_x> = 1
    <Mu_y> = 1
    <H_c> = 0
    <H_cAngle> = 0
    <J_re> = 0
    <J_im> = 0
    <Sigma> = 0
    <d_lam> = 0
    <Phi_h> = 0
    <Phi_hx> = 0
    <Phi_hy> = 0
    <LamType> = 0
    <LamFill> = 1
    <NStrands> = 0
    <WireD> = 0
    <BHPoints> = 0
  <EndBlock>
  <BeginBlock>
    <BlockName> = "FB14H_1"
    <Mu_x> = 1.05
    <Mu_y> = 1.05
    <H_c> = 356200
    <H_cAngle> = 0
    <J_re> = 0
    <J_im> = 0
    <Sigma> = 0
    <d_lam> = 0
    <Phi_h> = 0
    <Phi_hx> = 0
    <Phi_hy> = 0
    <LamType> = 0
    <LamFill> = 1
    <NStrands> = 0
    <WireD> = 0
    <BHPoints> = 0
  <EndBlock>
  <BeginBlock>
    <BlockName> = "FB14H_2"
    <Mu_x> = 1.05
    <Mu_y> = 1.05
    <H_c> = 356200
    <H_cAngle> = 0
    <J_re> = 0
    <J_im> = 0
    <Sigma> = 0
    <d_lam> = 0
    <Phi_h> = 0
    <Phi_hx> = 0
    <Phi_hy> = 0
    <LamType> = 0
    <LamFill> = 1
    <NStrands> = 0
    <WireD> = 0
    <BHPoints> = 0
  <EndBlock>
  <BeginBlock>
    <BlockName> = "FB14H_3"
    <Mu_x> = 1.05
    <Mu_y> = 1.05
    <H_c> = 356200
    <H_cAngle> = 0
    <J_re> = 0
    <J_im> = 0
    <Sigma> = 0
    <d_lam> = 0
    <Phi_h> = 0
    <Phi_hx> = 0
    <Phi_hy> = 0
    <LamType> = 0
    <LamFill> = 1
    <NStrands> = 0
    <WireD> = 0
    <BHPoints> = 0
  <EndBlock>
  <BeginBlock>
    <BlockName> = "FB14H_4"
    <Mu_x> = 1.05
    <Mu_y> = 1.05
    <H_c> = 356200
    <H_cAngle> = 0
    <J_re> = 0
    <J_im> = 0
    <Sigma> = 0
    <d_lam> = 0
    <Phi_h> = 0
    <Phi_hx> = 0
    <Phi_hy> = 0
    <LamType> = 0
    <LamFill> = 1
    <NStrands> = 0
    <WireD> = 0
    <BHPoints> = 0
  <EndBlock>
  <BeginBlock>
    <BlockName> = "FB14H_5"
    <Mu_x> = 1.05
    <Mu_y> = 1.05
    <H_c> = 356200
    <H_cAngle> = 0
    <J_re> = 0
    <J_im> = 0
    <Sigma> = 0
    <d_lam> = 0
    <Phi_h> = 0
    <Phi_hx> = 0
    <Phi_hy> = 0
    <LamType> = 0
    <LamFill> = 1
    <NStrands> = 0
    <WireD> = 0
    <BHPoints> = 0
  <EndBlock>
  <BeginBlock>
    <BlockName> = "FB14H_6"
    <Mu_x> = 1.05
    <Mu_y> = 1.05
    <H_c> = 356200
    <H_cAngle> = 0
    <J_re> = 0
    <J_im> = 0
    <Sigma> = 0
    <d_lam> = 0
    <Phi_h> = 0
    <Phi_hx> = 0
    <Phi_hy> = 0
    <LamType> = 0
    <LamFill> = 1
    <NStrands> = 0
    <WireD> = 0
    <BHPoints> = 0
  <EndBlock>
[CircuitProps]  = 6
  <BeginCircuit>
    <CircuitName> = "fase1"
    <TotalAmps_re> = 0
    <TotalAmps_im> = 0
    <CircuitType> = 1
  <EndCircuit>
  <BeginCircuit>
    <CircuitName> = "fase2"
    <TotalAmps_re> = 0
    <TotalAmps_im> = 0
    <CircuitType> = 1
  <EndCircuit>
  <BeginCircuit>
    <CircuitName> = "fase3"
    <TotalAmps_re> = 0
    <TotalAmps_im> = 0
    <CircuitType> = 1
  <EndCircuit>
  <BeginCircuit>
    <CircuitName> = "fase1n"
    <TotalAmps_re> = 0
    <TotalAmps_im> = 0
    <CircuitType> = 1
  <EndCircuit>
  <BeginCircuit>
    <CircuitName> = "fase2n"
    <TotalAmps_re> = 0
    <TotalAmps_im> = 0
    <CircuitType> = 1
  <EndCircuit>
  <BeginCircuit>
    <CircuitName> = "fase3n"
    <TotalAmps_re> = 0
    <TotalAmps_im> = 0
    <CircuitType> = 1
  <EndCircuit>
[NumPoints] = 151
729.89692781721749	28.647655309968961	0	2
730.07781405508661	22.943619616843399	0	2
734.13775701326995	28.91608260518715	0	2
734.89785401794666	29.755573592467371	0	2
733.83130824234547	30.717268354052923	0	2
728.02393430334314	30.351899355063075	0	2
728.25854560139669	22.886446802413467	0	2
725.42282760571447	32.743191948425313	0	2
725.7350805008607	22.807143716812909	0	2
731.60872973426706	33.132375922506839	0	2
734.59501439780377	36.47485191046696	0	2
734.08012248464502	36.934874309794722	0	2
721.67349836024596	36.154315681267043	0	2
722.09654359348065	22.69279808795303	0	2
719.17371232323876	38.434689088401683	0	2
719.67081685031201	22.61656655397374	0	2
730.67513334040859	39.158297164641056	0	2
734.23164231223814	43.175750456404423	0	2
732.39155183194953	44.804717323377012	0	2
713.4802745854513	43.614920608072062	0	2
714.14563117614239	22.442930599038373	0	2
729.89855589665672	28.64770670700403	0	2
728.0792874429668	28.590533892574097	0	2
721.78429069833442	32.628846319565433	0	2
713.64852664906914	38.261053133466312	0	2
730.25870029295572	17.239583923717838	0	2
734.50801587063745	17.241197670530084	0	2
735.31606889925251	16.447760289767487	0	2
734.31201302181887	15.420994249763854	0	2
728.49315689945024	15.420994249763856	0	2
726.04733339600693	12.871095485200506	0	2
732.24546612366873	12.871095485200502	0	2
735.43573384037211	9.7227254755725028	0	2
734.95074299423709	9.2312804946390159	0	2
722.51958882671534	9.2312804946390177	0	2
720.16792137738526	6.7984440195457996	0	2
731.69208269447017	6.7984440195458014	0	2
735.49383168762552	3.0122333002056578	0	2
733.75965588144436	1.2709405900046846	0	2
714.81098776683348	1.2709405900046846	0	2
730.25707221351649	17.239532526682769	0	2
728.43780375982658	17.182359712252836	0	2
722.40879648862688	12.756749856340626	0	2
714.64273570321564	6.6248080646104324	0	2
736	0	0	20
700	0	0	2
734.54767212320792	46.213822373574644	0	20
698.61870989979013	43.953363670519359	0	2
0	0	0	2
800	0	0	1
737	0	0	20
798.4213827426172	50.232415623450699	0	1
735.54569885163619	46.276612893103959	0	20
742.46856569875206	5.0452841322435429	0	1
742.47462725059881	3.8876235846130656	0	1
742.86826645160147	5.914295895300131	0	1
789.86103956835996	6.4064210539372404	0	1
791.89138072552714	4.4106016430623249	0	1
791.89314477590619	4.1463807019564909	0	1
791.8941476869054	3.8821557754977629	0	1
789.88481764463768	1.8651845023872848	0	1
742.8894677430261	1.8651845023872848	0	1
742.48068880244557	2.7299630369825887	0	1
767.1935101303726	1.8651845023872848	0	1
767.17097623288316	6.1688025803325104	0	1
736.98292660985192	5.0165611306540407	0	1
736.99504971354543	2.701240035393087	0	1
742.37502254996957	12.819978029209388	0	1
742.39320654079233	11.662444432103607	0	1
742.76560128339588	13.69312772379457	0	1
789.75064432816851	14.677324073999397	0	1
791.80177395044757	12.702875389449286	0	1
791.80630476875695	12.438687408500039	0	1
791.81007453115376	12.174487471929147	0	1
789.82197594946786	10.136585520212401	0	1
742.82920283270937	9.6444603615752929	0	1
742.41139053161487	10.504910834997826	0	1
767.13191261399118	9.8989670466076731	0	1
767.0643133926186	14.202113184333285	0	1
736.88998502321306	12.733812174241685	0	1
736.92635300485836	10.418744980030127	0	1
742.20006961415834	20.593266071116311	0	1
742.23037404987747	19.435986361138365	0	1
742.58148349680198	21.470457946526572	0	1
789.55364403014573	22.946617560078433	0	1
791.62533718805946	20.9937561224014	0	1
791.63263427744369	20.729630072797981	0	1
791.63917047784139	20.465484098615232	0	1
789.67252137415062	18.406874947206294	0	1
742.687478329378	17.422678597001465	0	1
742.2606784855966	18.278706651160423	0	1
766.98619043860083	17.931664057540182	0	1
766.87353330636154	22.233866366580131	0	1
736.71623514572093	20.449666811827406	0	1
736.77684401715931	18.135107391871518	0	1
741.94372607687922	28.364295829333514	0	1
741.98614763427202	27.207396915244967	0	1
742.3159332824099	29.245433691594666	0	1
789.27006027759421	31.213394690957131	0	1
791.36208978664183	29.282334653416569	0	1
791.37215234689302	29.018299499556736	0	1
791.38145426852361	28.754236454344859	0	1
789.43647030806414	26.6751458529356	0	1
742.46430977472039	25.198986239383736	0	1
742.0285691916647	26.05049800115642	0	1
766.75635958427995	25.962394659437297	0	1
766.59865689529818	30.263181354826976	0	1
736.46169603100782	28.163278913000408	0	1
736.54653914579319	25.84948108482331	0	1
741.60602004909003	36.132215122876474	0	1
741.66055407615454	34.975823871680312	0	1
741.96897976079322	37.017202345292397	0	1
788.89992416866801	39.476748921364972	0	1
791.01206061423898	37.567702046455061	0	1
791.0248875418838	37.30378674276885	0	1
791.03695416468668	37.039835584016465	0	1
789.11384863686806	34.94049152832055	0	1
742.15972164168375	32.972530528958089	0	1
741.71508810321893	33.819432620484157	0	1
766.44244525457202	33.990278192190402	0	1
766.23971430272445	38.289177644203207	0	1
736.12639559215586	35.873802593269289	0	1
736.23546364628476	33.561020090876973	0	1
741.18698856406229	43.896172111858149	0	1
741.25362908052773	42.740415334886421	0	1
741.54066097931525	44.784911645607004	0	1
788.44327629296265	47.735774081391064	0	1
790.57528805549396	45.848949717614644	0	1
790.59087794391542	45.585183205389164	0	1
790.60570794464934	45.321372878315287	0	1
788.70469173966399	43.202005585065876	0	1
741.7737473317892	40.742459008993293	0	1
741.32026959699328	41.584658557914693	0	1
766.04448187372043	42.014434307904125	0	1
765.79674489074068	46.310975093770942	0	1
735.7103705986367	43.580392306822816	0	1
735.84365163156781	41.268878752879353	0	1
799.95613549240966	8.377427292996634	0	1
736.95958982238244	7.7177048936731492	0	1
799.82454677987641	16.753935906685566	0	1
736.83836372096118	15.434563454034077	0	1
799.60524829258532	25.128607262502634	0	1
736.63633498954414	23.14972944058055	0	1
799.29826407908672	33.500522983359694	0	1
736.35352578285858	30.862356798420116	0	1
798.90362780365911	41.868764994355054	0	1
735.98996711412087	38.571599751049597	0	1
736.66666666666663	0	0	20
735.21302327549336	46.255682719927513	0	20
736.33333333333337	0	0	20
734.88034769935064	46.234752546751082	0	20
[NumSegments] = 135
0	1	0.91428571428571437	0	0	2
2	0	0.91428571428571437	0	0	2
5	4	0.91428571428571437	0	0	2
6	22	0.91428571428571437	0	0	2
7	8	0.91428571428571437	0	0	2
9	7	0.91428571428571437	0	0	2
12	11	0.91428571428571437	0	0	2
13	23	0.91428571428571437	0	0	2
14	15	0.91428571428571437	0	0	2
16	14	0.91428571428571437	0	0	2
19	18	0.91428571428571437	0	0	2
20	24	0.91428571428571437	0	0	2
1	6	0.91428571428571437	0	0	2
21	1	0.91428571428571437	0	0	2
22	5	0.91428571428571437	0	0	2
22	0	0.91428571428571437	0	0	2
0	21	-1	0	0	0
8	13	0.91428571428571437	0	0	2
23	12	0.91428571428571437	0	0	2
23	7	0.91428571428571437	0	0	2
15	20	0.91428571428571437	0	0	2
24	19	0.91428571428571437	0	0	2
24	14	0.91428571428571437	0	0	2
25	1	0.91428571428571437	0	0	2
26	25	0.91428571428571437	0	0	2
29	28	0.91428571428571437	0	0	2
6	41	0.91428571428571437	0	0	2
30	8	0.91428571428571437	0	0	2
31	30	0.91428571428571437	0	0	2
34	33	0.91428571428571437	0	0	2
13	42	0.91428571428571437	0	0	2
35	15	0.91428571428571437	0	0	2
36	35	0.91428571428571437	0	0	2
39	38	0.91428571428571437	0	0	2
20	43	0.91428571428571437	0	0	2
40	1	0.91428571428571437	0	0	2
41	29	0.91428571428571437	0	0	2
41	40	0.91428571428571437	0	0	2
42	34	0.91428571428571437	0	0	2
42	30	0.91428571428571437	0	0	2
43	39	0.91428571428571437	0	0	2
43	35	0.91428571428571437	0	0	2
44	45	-1	4	0	2
47	46	-1	4	0	2
45	48	-1	2	0	2
48	47	-1	2	0	2
49	50	-1	10	0	1
52	51	-1	10	0	1
53	54	0.91428571428571437	0	0	1
55	53	0.91428571428571437	0	0	1
56	64	0.91428571428571437	0	0	1
58	57	0.91428571428571437	0	0	1
59	58	0.91428571428571437	0	0	1
61	63	0.91428571428571437	0	0	1
62	61	0.91428571428571437	0	0	1
54	62	0.91428571428571437	0	0	1
63	60	0.91428571428571437	0	0	1
64	55	0.91428571428571437	0	0	1
63	64	0.91428571428571437	0	0	1
53	65	0.91428571428571437	0	0	1
66	62	0.91428571428571437	0	0	1
67	68	0.91428571428571437	0	0	1
69	67	0.91428571428571437	0	0	1
70	78	0.91428571428571437	0	0	1
72	71	0.91428571428571437	0	0	1
73	72	0.91428571428571437	0	0	1
75	77	0.91428571428571437	0	0	1
76	75	0.91428571428571437	0	0	1
68	76	0.91428571428571437	0	0	1
77	74	0.91428571428571437	0	0	1
78	69	0.91428571428571437	0	0	1
77	78	0.91428571428571437	0	0	1
67	79	0.91428571428571437	0	0	1
80	76	0.91428571428571437	0	0	1
81	82	0.91428571428571437	0	0	1
83	81	0.91428571428571437	0	0	1
84	92	0.91428571428571437	0	0	1
86	85	0.91428571428571437	0	0	1
87	86	0.91428571428571437	0	0	1
89	91	0.91428571428571437	0	0	1
90	89	0.91428571428571437	0	0	1
82	90	0.91428571428571437	0	0	1
91	88	0.91428571428571437	0	0	1
92	83	0.91428571428571437	0	0	1
91	92	0.91428571428571437	0	0	1
81	93	0.91428571428571437	0	0	1
94	90	0.91428571428571437	0	0	1
95	96	0.91428571428571437	0	0	1
97	95	0.91428571428571437	0	0	1
98	106	0.91428571428571437	0	0	1
100	99	0.91428571428571437	0	0	1
101	100	0.91428571428571437	0	0	1
103	105	0.91428571428571437	0	0	1
104	103	0.91428571428571437	0	0	1
96	104	0.91428571428571437	0	0	1
105	102	0.91428571428571437	0	0	1
106	97	0.91428571428571437	0	0	1
105	106	0.91428571428571437	0	0	1
95	107	0.91428571428571437	0	0	1
108	104	0.91428571428571437	0	0	1
109	110	0.91428571428571437	0	0	1
111	109	0.91428571428571437	0	0	1
112	120	0.91428571428571437	0	0	1
114	113	0.91428571428571437	0	0	1
115	114	0.91428571428571437	0	0	1
117	119	0.91428571428571437	0	0	1
118	117	0.91428571428571437	0	0	1
110	118	0.91428571428571437	0	0	1
119	116	0.91428571428571437	0	0	1
120	111	0.91428571428571437	0	0	1
119	120	0.91428571428571437	0	0	1
109	121	0.91428571428571437	0	0	1
122	118	0.91428571428571437	0	0	1
123	124	0.91428571428571437	0	0	1
125	123	0.91428571428571437	0	0	1
126	134	0.91428571428571437	0	0	1
128	127	0.91428571428571437	0	0	1
129	128	0.91428571428571437	0	0	1
131	133	0.91428571428571437	0	0	1
132	131	0.91428571428571437	0	0	1
124	132	0.91428571428571437	0	0	1
133	130	0.91428571428571437	0	0	1
134	125	0.91428571428571437	0	0	1
133	134	0.91428571428571437	0	0	1
123	135	0.91428571428571437	0	0	1
136	132	0.91428571428571437	0	0	1
137	138	0.91428571428571437	0	0	1
139	140	0.91428571428571437	0	0	1
141	142	0.91428571428571437	0	0	1
143	144	0.91428571428571437	0	0	1
145	146	0.91428571428571437	0	0	1
147	50	0.091428571428571442	7	0	20
148	52	0.091428571428571442	7	0	20
149	44	0.091428571428571442	5	0	20
150	46	0.091428571428571442	5	0	20
[NumArcSegments] = 52
2	3	88.718605287329098	10	0	0	2	1
3	4	91.281394712622358	10	0	0	2	1
9	10	89.242573268732869	4.1046818091164194	0	0	2	1
10	11	90.757426731264729	10	0	0	2	1
16	17	89.765345020412354	3.4447482898482704	0	0	2	1
17	18	90.234654979585201	7.5517535741763684	0	0	2	1
27	26	88.718605287420104	10	0	0	2	1
28	27	91.281394712619488	10	0	0	2	1
32	31	89.242573268735612	4.1046818091156334	0	0	2	1
33	32	90.757426731264545	10	0	0	2	1
37	36	89.765345020411786	3.4447482898416304	0	0	2	1
38	37	90.234654979586608	7.5517535744289033	0	0	2	1
44	46	3.5999999999999996	0.017793720345677742	0	0	2	1
45	47	3.5999999999999996	0.018708825963455456	0	0	2	1
49	137	0.59999999999999998	0.91428571428571437	1	0	1	1
50	66	0.20999999999999988	0.017769576898804366	0	0	1	1
57	56	90.217474906946521	6.517637003796878	0	0	1	1
60	59	90.217474906949803	6.5176370037966755	0	0	1	1
65	138	0.20999999999999983	0.017769576898804366	0	0	1	1
66	65	0.17999999999999994	0.017769576898804366	0	0	1	1
71	70	90.217474906948041	6.5176370037968594	0	0	1	1
74	73	90.217474906949846	6.5176370037966711	0	0	1	1
79	140	0.20999999999999988	0.017769576898804366	0	0	1	1
80	79	0.17999999999999966	0.017769576898804366	0	0	1	1
85	84	90.217474906946876	6.5176370037965343	0	0	1	1
88	87	90.217474906948397	6.5176370037966747	0	0	1	1
93	142	0.2099999999999998	0.017769576898804366	0	0	1	1
94	93	0.18000000000000044	0.017769576898804366	0	0	1	1
99	98	90.2174749069477	6.5176370037969447	0	0	1	1
102	101	90.217474906949491	6.5176370037966809	0	0	1	1
107	144	0.20999999999999905	0.017769576898804366	0	0	1	1
108	107	0.17999999999999983	0.017769576898804366	0	0	1	1
113	112	90.217474906948908	6.5176370037968656	0	0	1	1
116	115	90.217474906948539	6.5176370037966764	0	0	1	1
121	146	0.20999999999999988	0.017769576898804366	0	0	1	1
122	121	0.18000000000000063	0.017769576898804366	0	0	1	1
127	126	90.217474906946435	6.517637003796823	0	0	1	1
130	129	90.217474906950727	6.5176370037966693	0	0	1	1
135	52	0.2100000000000006	0.017769576898804366	0	0	1	1
136	135	0.17999999999999944	0.017769576898804366	0	0	1	1
137	139	0.59999999999999964	0.91428571428571437	1	0	1	1
138	80	0.21000000000000019	0.017769576898804366	0	0	1	1
139	141	0.59999999999999987	0.91428571428571437	1	0	1	1
140	94	0.21000000000000002	0.017769576898804366	0	0	1	1
141	143	0.59999999999999931	0.91428571428571437	1	0	1	1
142	108	0.20999999999999983	0.017769576898804366	0	0	1	1
143	145	0.60000000000000009	0.91428571428571437	1	0	1	1
144	122	0.2099999999999998	0.017769576898804366	0	0	1	1
145	51	0.60000000000000087	0.91428571428571437	1	0	1	1
146	136	0.21000000000000019	0.017769576898804366	0	0	1	1
147	148	3.6000000000000001	0.091428571428571442	11	0	20	1
149	150	3.6000000000000001	0.091428571428571442	11	0	20	1
[NumHoles] = 0
[NumBlockLabels] = 40
729.07855074902682	25.76707675470875	8	0.91428571428571437	0	1.7999999999999747	201	1	0