[Format]      =  4.0
[Frequency]   =  0
[Precision]   =  1e-008
[MinAngle]    =  15
[DoSmartMesh] =  1
[Depth]       =  300
[LengthUnits] =  millimeters
[ProblemType] =  planar
[Coordinates] =  cartesian
[ACSolver]    =  0
[PrevType]    =  0
[PrevSoln]    =  ""
[Comment]     =  "Add comments here."
[PointProps]   = 0
[BdryProps]   = 1
  <BeginBdry>
    <BdryName> = "A=0"
    <BdryType> = 0
    <A_0> = 0
    <A_1> = 0
    <A_2> = 0
    <Phi> = 0
    <c0> = 0
    <c0i> = 0
    <c1> = 0
    <c1i> = 0
    <Mu_ssd> = 0
    <Sigma_ssd> = 0
    <innerangle> = 0
    <outerangle> = 0
  <EndBdry>
[BlockProps]  = 7
  <BeginBlock>
    <BlockName> = "M600-50A"
    <Mu_x> = 1
    <Mu_y> = 1
    <H_c> = 0
    <H_cAngle> = 0
    <J_re> = 0
    <J_im> = 0
    <Sigma> = 0
    <d_lam> = 0
    <Phi_h> = 0
    <Phi_hx> = 0
    <Phi_hy> = 0
    <LamType> = 0
    <LamFill> = 1
    <NStrands> = 0
    <WireD> = 0
    <BHPoints> = 208
      0	0
      0.0061294119999999999	8.2635015680000006
      0.012398954	15.54584049
      0.018188152999999999	21.42337126
      0.023698273999999998	26.396066560000001
      0.028962854999999999	30.670770340000001
      0.034031080999999998	34.409892589999998
      0.038937833999999998	37.72521158
      0.043710287	40.697869570000002
      0.048369641999999997	43.388214720000001
      0.052932743999999997	45.842257519999997
      0.057413198999999998	48.095830579999998
      0.061822165999999998	50.17736026
      0.066168929000000001	52.109762629999999
      0.070461307000000001	53.911772880000001
      0.074705967999999998	55.598898519999999
      0.078908651999999996	57.184116670000002
      0.083074354000000003	58.67839326
      0.087207454000000004	60.091076020000003
      0.091311829999999997	61.430196219999999
      0.095390935999999996	62.702703470000003
      0.099447875000000005	63.914650479999999
      0.10348545000000001	65.071340269999993
      0.107506212	66.177444339999994
      0.111512495	67.237098649999993
      0.115506446	68.253982050000005
      0.119490053	69.231381029999994
      0.123465163	70.172243330000001
      0.127433505	71.079222909999999
      0.131396704	71.954717669999994
      0.13535628999999999	72.800901379999999
      0.139313718	73.619750830000001
      0.14327037200000001	74.413069070000006
      0.147227575	75.182505329999998
      0.151186599	75.929572239999999
      0.15514867099999999	76.655660710000006
      0.15911497799999999	77.362052919999996
      0.16308667299999999	78.049933670000001
      0.167064883	78.720400249999997
      0.171050709	79.374471249999999
      0.17504523399999999	80.013094219999999
      0.17904952399999999	80.637152520000001
      0.183064634	81.247471390000001
      0.18709161099999999	81.844823349999999
      0.19113149500000001	82.429933079999998
      0.19518532499999999	83.003481679999993
      0.19925414	83.566110629999997
      0.203338983	84.118425299999998
      0.20744090200000001	84.6609981
      0.21156095499999999	85.194371430000004
      0.21570021	85.719060249999998
      0.21985974999999999	86.23555451
      0.224040674	86.744321339999999
      0.228244101	87.245807119999995
      0.232471172	87.740439260000002
      0.23672305199999999	88.228628009999994
      0.241000933	88.710768049999999
      0.245306038	89.187239969999993
      0.249639624	89.658411700000002
      0.25400298399999999	90.124639849999994
      0.258397449	90.586270990000003
      0.26282439699999999	91.043642790000007
      0.267285249	91.497085290000001
      0.27178147899999999	91.946921900000007
      0.27631461499999999	92.393470609999994
      0.28088624499999998	92.837044969999994
      0.28549801899999999	93.277955219999996
      0.29015165799999998	93.716509279999997
      0.294848956	94.153013889999997
      0.299591787	94.587775629999996
      0.30438211199999998	95.021102040000002
      0.30922198299999998	95.45330276
      0.31411355600000002	95.884690719999995
      0.31905909100000002	96.315583349999997
      0.324060968	96.746303900000001
      0.32912169099999999	97.177182860000002
      0.33424390300000001	97.608559369999995
      0.33943039400000002	98.040782919999998
      0.34468411100000002	98.474215020000003
      0.35000818	98.909231149999997
      0.35540591100000002	99.346222819999994
      0.36088082199999999	99.785599880000007
      0.366436651	100.2277931
      0.37207738099999998	100.67325700000001
      0.37780725700000001	101.1224732
      0.38363081700000001	101.57595360000001
      0.389552911	102.03424510000001
      0.39557873700000001	102.4979336
      0.401713873	102.9676498
      0.40796431599999999	103.44407510000001
      0.41433652900000001	103.9279489
      0.420837509	104.4200783
      0.42747497499999998	104.9213567
      0.43425898400000001	105.43288579999999
      0.44146202099999998	105.9749185
      0.44856258700000001	106.5079061
      0.45587690400000003	107.05707719999999
      0.46342101400000002	107.62377619999999
      0.47120716099999999	108.2090887
      0.47924850299999999	108.8142005
      0.48755929799999997	109.4404164
      0.496155022	110.0891769
      0.50505251799999995	110.7620768
      0.51427015700000001	111.4608879
      0.52382802100000003	112.1875854
      0.53374812500000002	112.944379
      0.54405466000000002	113.73375040000001
      0.55477427700000004	114.558498
      0.56593642099999997	115.4217907
      0.57757370900000005	116.3272333
      0.58972237000000005	117.2789456
      0.60242275199999995	118.28165920000001
      0.61571989900000001	119.3408371
      0.62966422099999997	120.4628209
      0.64431222899999996	121.65501310000001
      0.65972736300000001	122.92610569999999
      0.67598086099999999	124.28636400000001
      0.69315263800000004	125.74798269999999
      0.71133206000000004	127.3255305
      0.73061842099999996	129.03650049999999
      0.75112078999999998	130.90198509999999
      0.772956635	132.94748089999999
      0.79624826999999998	135.20380520000001
      0.82111564500000001	137.70804709999999
      0.84766332799999999	140.50436830000001
      0.87595905799999996	143.6442744
      0.90600166900000001	147.18571779999999
      0.93767904199999996	151.19014369999999
      0.97072398500000001	155.71669249999999
      1.0046871660000001	160.81373919999999
      1.0389539999999999	166.5100477
      1.0728218	172.80985770000001
      1.1056189649999999	179.69557180000001
      1.1368151129999999	187.13741469999999
      1.166076154	195.10516089999999
      1.1932571599999999	203.57694960000001
      1.2183581130000001	212.54344710000001
      1.2414717689999999	222.00841339999999
      1.262740478	231.98749659999999
      1.2823264919999999	242.50660869999999
      1.3003940249999999	253.6005657
      1.317099609	265.31223169999998
      1.332587655	277.69219570000001
      1.346989049	290.79894300000001
      1.360421377	304.69948410000001
      1.3729899480000001	319.47042970000001
      1.3847891750000001	335.19953839999999
      1.395904035	351.98780690000001
      1.406411522	369.95222330000001
      1.416382027	389.22936779999998
      1.4258806550000001	409.98013700000001
      1.4349684949999999	432.3959911
      1.443703884	456.70731569999998
      1.452143746	483.19477810000001
      1.460345062	512.205018
      1.468366627	544.17275689999997
      1.476271267	579.65265699999998
      1.484128812	619.36640990000001
      1.4920203320000001	664.27439319999996
      1.5000444559999999	715.68841520000001
      1.5083273020000001	775.45608200000004
      1.517038858	846.27605440000002
      1.52642144	932.26565330000005
      1.5368418420000001	1040.044543
      1.5488919160000001	1180.938134
      1.5635876129999999	1375.704356
      1.5827254589999999	1664.518061
      1.609038255	2120.3213700000001
      1.6429877180000001	2803.4219309999999
      1.6763000130000001	3588.174364
      1.7038913950000001	4346.5592559999996
      1.7268422349999999	5076.0393119999999
      1.746445904	5791.6494789999997
      1.7635818270000001	6506.5344940000004
      1.778835427	7231.1495919999998
      1.792609184	7974.1327339999998
      1.805191346	8743.1111569999994
      1.8167966790000001	9545.295204
      1.8275911469999999	10387.927960000001
      1.837707435	11278.663500000001
      1.8472551399999999	12225.930109999999
      1.8563277979999999	13239.325269999999
      1.865008022	14330.08987
      1.873371527	15511.71947
      1.8814906259999999	16800.793989999998
      1.88943763	18218.15107
      1.8972886259999999	19790.607090000001
      1.905128269	21553.57647
      1.913056538	23555.22162
      1.921199232	25863.341659999998
      1.92972568	28577.465530000001
      1.938881257	31851.611560000001
      1.949053186	35941.14198
      1.960921235	41311.621829999996
      1.975868577	48939.738250000002
      1.9972472800000001	61282.289870000001
      2.0280781640000001	81252.957920000001
      2.0737002590000002	113566.1776
      2.1433819129999998	165850.06529999999
      2.250195926	248560.18210000001
      2.3541325240000002	331270.29889999999
      2.4580691219999999	413980.41570000001
      2.5620057200000002	496690.53249999997
      2.665942319	579400.64930000005
      2.7698789170000002	662110.76610000001
      2.873815515	744820.88289999997
      2.9777521130000002	827530.99970000004
      3.081688711	910241.1165
  <EndBlock>
  <BeginBlock>
    <BlockName> = "ShaftAir"
    <Mu_x> = 1
    <Mu_y> = 1
    <H_c> = 0
    <H_cAngle> = 0
    <J_re> = 0
    <J_im> = 0
    <Sigma> = 0
    <d_lam> = 0
    <Phi_h> = 0
    <Phi_hx> = 0
    <Phi_hy> = 0
    <LamType> = 0
    <LamFill> = 1
    <NStrands> = 0
    <WireD> = 0
    <BHPoints> = 3
      -100	-7.9577471545947675e-011
      0	0
      100	7.9577471545947675e-011
  <EndBlock>
  <BeginBlock>
    <BlockName> = "Copper"
    <Mu_x> = 1
    <Mu_y> = 1
    <H_c> = 0
    <H_cAngle> = 0
    <J_re> = 0
    <J_im> = 0
    <Sigma> = 58
    <d_lam> = 0
    <Phi_h> = 0
    <Phi_hx> = 0
    <Phi_hy> = 0
    <LamType> = 0
    <LamFill> = 1
    <NStrands> = 0
    <WireD> = 0
    <BHPoints> = 0
  <EndBlock>
  <BeginBlock>
    <BlockName> = "Aluminium"
    <Mu_x> = 1
    <Mu_y> = 1
    <H_c> = 0
    <H_cAngle> = 0
    <J_re> = 0
    <J_im> = 0
    <Sigma> = 29
    <d_lam> = 0
    <Phi_h> = 0
    <Phi_hx> = 0
    <Phi_hy> = 0
    <LamType> = 0
    <LamFill> = 1
    <NStrands> = 0
    <WireD> = 0
    <BHPoints> = 0
  <EndBlock>
  <BeginBlock>
    <BlockName> = "FB14H"
    <Mu_x> = 1.05
    <Mu_y> = 1.05
    <H_c> = 356200
    <H_cAngle> = 0
    <J_re> = 0
    <J_im> = 0
    <Sigma> = 0
    <d_lam> = 0
    <Phi_h> = 0
    <Phi_hx> = 0
    <Phi_hy> = 0
    <LamType> = 0
    <LamFill> = 1
    <NStrands> = 0
    <WireD> = 0
    <BHPoints> = 0
  <EndBlock>
  <BeginBlock>
    <BlockName> = "DW235"
    <Mu_x> = 1
    <Mu_y> = 1
    <H_c> = 0
    <H_cAngle> = 0
    <J_re> = 0
    <J_im> = 0
    <Sigma> = 0
    <d_lam> = 0
    <Phi_h> = 0
    <Phi_hx> = 0
    <Phi_hy> = 0
    <LamType> = 0
    <LamFill> = 1
    <NStrands> = 0
    <WireD> = 0
    <BHPoints> = 0
  <EndBlock>
  <BeginBlock>
    <BlockName> = "Air"
    <Mu_x> = 1
    <Mu_y> = 1
    <H_c> = 0
    <H_cAngle> = 0
    <J_re> = 0
    <J_im> = 0
    <Sigma> = 0
    <d_lam> = 0
    <Phi_h> = 0
    <Phi_hx> = 0
    <Phi_hy> = 0
    <LamType> = 0
    <LamFill> = 1
    <NStrands> = 0
    <WireD> = 0
    <BHPoints> = 0
  <EndBlock>
[CircuitProps]  = 10
  <BeginCircuit>
    <CircuitName> = "conductor_1"
    <TotalAmps_re> = 0
    <TotalAmps_im> = 0
    <CircuitType> = 1
  <EndCircuit>
  <BeginCircuit>
    <CircuitName> = "conductor_2"
    <TotalAmps_re> = 0
    <TotalAmps_im> = 0
    <CircuitType> = 1
  <EndCircuit>
  <BeginCircuit>
    <CircuitName> = "conductor_3"
    <TotalAmps_re> = 0
    <TotalAmps_im> = 0
    <CircuitType> = 1
  <EndCircuit>
  <BeginCircuit>
    <CircuitName> = "conductor_4"
    <TotalAmps_re> = 0
    <TotalAmps_im> = 0
    <CircuitType> = 1
  <EndCircuit>
  <BeginCircuit>
    <CircuitName> = "conductor_5"
    <TotalAmps_re> = 0
    <TotalAmps_im> = 0
    <CircuitType> = 1
  <EndCircuit>
  <BeginCircuit>
    <CircuitName> = "conductor_6"
    <TotalAmps_re> = 0
    <TotalAmps_im> = 0
    <CircuitType> = 1
  <EndCircuit>
  <BeginCircuit>
    <CircuitName> = "conductor_7"
    <TotalAmps_re> = 0
    <TotalAmps_im> = 0
    <CircuitType> = 1
  <EndCircuit>
  <BeginCircuit>
    <CircuitName> = "conductor_8"
    <TotalAmps_re> = 0
    <TotalAmps_im> = 0
    <CircuitType> = 1
  <EndCircuit>
  <BeginCircuit>
    <CircuitName> = "conductor_9"
    <TotalAmps_re> = 0
    <TotalAmps_im> = 0
    <CircuitType> = 1
  <EndCircuit>
  <BeginCircuit>
    <CircuitName> = "conductor_10"
    <TotalAmps_re> = 0
    <TotalAmps_im> = 0
    <CircuitType> = 1
  <EndCircuit>
[NumPoints] = 55
742.48480504859572	1.1576764167723588	0	1
736.99909076288145	1.1576764167723579	0	1
742.88905043660657	2.0245834489454047	0	1
789.88375613758956	2.2706494012751506	0	1
791.9036194250931	0.26422655573453113	0	1
791.90399999999988	0	0	1
791.90361942509321	-0.2642265557345298	0	1
789.88375613758944	-2.2706494012751506	0	1
742.88905043660645	-2.0245834489454047	0	1
742.48480504859583	-1.1576764167723579	0	1
736.99909076288156	-1.1576764167723579	0	1
736.9898973863535	3.8589053437562302	0	1
735.98991109410611	3.8536693799248107	0	1
736.9898973863535	-3.8589053437562302	0	1
735.98991109410611	-3.8536693799248107	0	1
787.6316109958733	0	0	3
788.75268356673143	1.1210725708581124	0	3
789.87375613758957	0	0	3
788.75268356673143	-1.1210725708581124	0	3
783.71346067632578	0	0	3
784.83453324718391	1.1210725708581124	0	3
785.95560581804205	0	0	3
784.83453324718391	-1.1210725708581124	0	3
779.79531035677826	0	0	3
780.91638292763639	1.1210725708581124	0	3
782.03745549849452	0	0	3
780.91638292763639	-1.1210725708581124	0	3
775.87716003723074	0	0	3
776.99823260808887	1.1210725708581124	0	3
778.119305178947	0	0	3
776.99823260808887	-1.1210725708581124	0	3
771.95900971768322	0	0	3
773.08008228854135	1.1210725708581124	0	3
774.20115485939948	0	0	3
773.08008228854135	-1.1210725708581124	0	3
768.04085939813569	0	0	3
769.16193196899383	1.1210725708581124	0	3
770.28300453985196	0	0	3
769.16193196899383	-1.1210725708581124	0	3
764.12270907858817	0	0	3
765.2437816494463	1.1210725708581124	0	3
766.36485422030444	0	0	3
765.2437816494463	-1.1210725708581124	0	3
760.20455875904065	0	0	3
761.32563132989878	1.1210725708581124	0	3
762.44670390075692	0	0	3
761.32563132989878	-1.1210725708581124	0	3
756.28640843949313	0	0	3
757.40748101035126	1.1210725708581124	0	3
758.52855358120939	0	0	3
757.40748101035126	-1.1210725708581124	0	3
752.36825811994561	0	0	3
753.48933069080374	1.1210725708581124	0	3
754.61040326166187	0	0	3
753.48933069080374	-1.1210725708581124	0	3
[NumSegments] = 10
0	1	0.091428571428571442	0	0	1
2	0	0.091428571428571442	0	0	1
3	2	0.091428571428571442	0	0	3
5	4	0.091428571428571442	0	0	1
6	5	0.091428571428571442	0	0	3
8	7	0.091428571428571442	0	0	3
9	8	0.091428571428571442	0	0	1
10	9	0.091428571428571442	0	0	1
11	12	0.091428571428571442	0	0	1
14	13	0.091428571428571442	0	0	1
[NumArcSegments] = 46
4	3	90.217474906946151	0.65176370037969611	0	0	1	1
7	6	90.217474906949434	0.65176370037966735	0	0	1	1
13	10	0.20999999999999994	0.091428571428571442	1	0	1	1
10	1	0.18000000000000008	0.0017769576898804366	0	0	1	1
1	11	0.21000000000000002	0.091428571428571442	1	0	1	1
14	12	0.59999999999999998	0.0017793720345677744	0	0	1	1
16	15	90	1.1681829093717364	0	0	3	1
17	16	90	1.1681829093717158	0	0	3	1
18	17	90	1.1681829093717364	0	0	3	1
15	18	90	1.1681829093717158	0	0	3	1
20	19	90	1.1681829093717364	0	0	3	1
21	20	90	1.1681829093717158	0	0	3	1
22	21	90	1.1681829093717364	0	0	3	1
19	22	90	1.1681829093717158	0	0	3	1
24	23	90	1.1681829093717364	0	0	3	1
25	24	90	1.1681829093717158	0	0	3	1
26	25	90	1.1681829093717364	0	0	3	1
23	26	90	1.1681829093717158	0	0	3	1
28	27	90	1.1681829093717364	0	0	3	1
29	28	90	1.1681829093717158	0	0	3	1
30	29	90	1.1681829093717364	0	0	3	1
27	30	90	1.1681829093717158	0	0	3	1
32	31	90	1.1681829093717364	0	0	3	1
33	32	90	1.1681829093717158	0	0	3	1
34	33	90	1.1681829093717364	0	0	3	1
31	34	90	1.1681829093717158	0	0	3	1
36	35	90	1.1681829093717364	0	0	3	1
37	36	90	1.1681829093717158	0	0	3	1
38	37	90	1.1681829093717364	0	0	3	1
35	38	90	1.1681829093717158	0	0	3	1
40	39	90	1.1681829093717364	0	0	3	1
41	40	90	1.1681829093717158	0	0	3	1
42	41	90	1.1681829093717364	0	0	3	1
39	42	90	1.1681829093717158	0	0	3	1
44	43	90	1.1681829093717364	0	0	3	1
45	44	90	1.1681829093717158	0	0	3	1
46	45	90	1.1681829093717364	0	0	3	1
43	46	90	1.1681829093717158	0	0	3	1
48	47	90	1.1681829093717364	0	0	3	1
49	48	90	1.1681829093717158	0	0	3	1
50	49	90	1.1681829093717364	0	0	3	1
47	50	90	1.1681829093717158	0	0	3	1
52	51	90	1.1681829093717364	0	0	3	1
53	52	90	1.1681829093717158	0	0	3	1
54	53	90	1.1681829093717364	0	0	3	1
51	54	90	1.1681829093717158	0	0	3	1
[NumHoles] = 0
[NumBlockLabels] = 12
736.5	0	7	0.091428571428571442	0	0	1	1	0
739.74285714285713	0	7	0.091428571428571442	0	0	1	1	0
788.75268356673143	0	3	0.091428571428571442	1	0	3	1	0
784.83453324718391	0	3	0.091428571428571442	2	0	3	1	0
780.91638292763639	0	3	0.091428571428571442	3	0	3	1	0
776.99823260808887	0	3	0.091428571428571442	4	0	3	1	0
773.08008228854135	0	3	0.091428571428571442	5	0	3	1	0
769.16193196899383	0	3	0.091428571428571442	6	0	3	1	0
765.2437816494463	0	3	0.091428571428571442	7	0	3	1	0
761.32563132989878	0	3	0.091428571428571442	8	0	3	1	0
757.40748101035126	0	3	0.091428571428571442	9	0	3	1	0
753.48933069080374	0	3	0.091428571428571442	10	0	3	1	0
