[Format]      =  4.0
[Frequency]   =  0
[Precision]   =  1e-008
[MinAngle]    =  15
[DoSmartMesh] =  1
[Depth]       =  100
[LengthUnits] =  millimeters
[ProblemType] =  planar
[Coordinates] =  cartesian
[ACSolver]    =  0
[PrevType]    =  0
[PrevSoln]    =  ""
[Comment]     =  "Add comments here."
[PointProps]   = 0
[BdryProps]   = 11
  <BeginBdry>
    <BdryName> = "A=0"
    <BdryType> = 0
    <A_0> = 0
    <A_1> = 0
    <A_2> = 0
    <Phi> = 0
    <c0> = 0
    <c0i> = 0
    <c1> = 0
    <c1i> = 0
    <Mu_ssd> = 0
    <Sigma_ssd> = 0
    <innerangle> = 0
    <outerangle> = 0
  <EndBdry>
  <BeginBdry>
    <BdryName> = "APr1"
    <BdryType> = 5
    <A_0> = 0
    <A_1> = 0
    <A_2> = 0
    <Phi> = 0
    <c0> = 0
    <c0i> = 0
    <c1> = 0
    <c1i> = 0
    <Mu_ssd> = 0
    <Sigma_ssd> = 0
    <innerangle> = 0
    <outerangle> = 0
  <EndBdry>
  <BeginBdry>
    <BdryName> = "APr2"
    <BdryType> = 5
    <A_0> = 0
    <A_1> = 0
    <A_2> = 0
    <Phi> = 0
    <c0> = 0
    <c0i> = 0
    <c1> = 0
    <c1i> = 0
    <Mu_ssd> = 0
    <Sigma_ssd> = 0
    <innerangle> = 0
    <outerangle> = 0
  <EndBdry>
  <BeginBdry>
    <BdryName> = "APr3"
    <BdryType> = 5
    <A_0> = 0
    <A_1> = 0
    <A_2> = 0
    <Phi> = 0
    <c0> = 0
    <c0i> = 0
    <c1> = 0
    <c1i> = 0
    <Mu_ssd> = 0
    <Sigma_ssd> = 0
    <innerangle> = 0
    <outerangle> = 0
  <EndBdry>
  <BeginBdry>
    <BdryName> = "APg1"
    <BdryType> = 5
    <A_0> = 0
    <A_1> = 0
    <A_2> = 0
    <Phi> = 0
    <c0> = 0
    <c0i> = 0
    <c1> = 0
    <c1i> = 0
    <Mu_ssd> = 0
    <Sigma_ssd> = 0
    <innerangle> = 0
    <outerangle> = 0
  <EndBdry>
  <BeginBdry>
    <BdryName> = "APg2"
    <BdryType> = 5
    <A_0> = 0
    <A_1> = 0
    <A_2> = 0
    <Phi> = 0
    <c0> = 0
    <c0i> = 0
    <c1> = 0
    <c1i> = 0
    <Mu_ssd> = 0
    <Sigma_ssd> = 0
    <innerangle> = 0
    <outerangle> = 0
  <EndBdry>
  <BeginBdry>
    <BdryName> = "APg3"
    <BdryType> = 5
    <A_0> = 0
    <A_1> = 0
    <A_2> = 0
    <Phi> = 0
    <c0> = 0
    <c0i> = 0
    <c1> = 0
    <c1i> = 0
    <Mu_ssd> = 0
    <Sigma_ssd> = 0
    <innerangle> = 0
    <outerangle> = 0
  <EndBdry>
  <BeginBdry>
    <BdryName> = "APs1"
    <BdryType> = 5
    <A_0> = 0
    <A_1> = 0
    <A_2> = 0
    <Phi> = 0
    <c0> = 0
    <c0i> = 0
    <c1> = 0
    <c1i> = 0
    <Mu_ssd> = 0
    <Sigma_ssd> = 0
    <innerangle> = 0
    <outerangle> = 0
  <EndBdry>
  <BeginBdry>
    <BdryName> = "APs2"
    <BdryType> = 5
    <A_0> = 0
    <A_1> = 0
    <A_2> = 0
    <Phi> = 0
    <c0> = 0
    <c0i> = 0
    <c1> = 0
    <c1i> = 0
    <Mu_ssd> = 0
    <Sigma_ssd> = 0
    <innerangle> = 0
    <outerangle> = 0
  <EndBdry>
  <BeginBdry>
    <BdryName> = "APs3"
    <BdryType> = 5
    <A_0> = 0
    <A_1> = 0
    <A_2> = 0
    <Phi> = 0
    <c0> = 0
    <c0i> = 0
    <c1> = 0
    <c1i> = 0
    <Mu_ssd> = 0
    <Sigma_ssd> = 0
    <innerangle> = 0
    <outerangle> = 0
  <EndBdry>
  <BeginBdry>
    <BdryName> = "AGap"
    <BdryType> = 7
    <A_0> = 0
    <A_1> = 0
    <A_2> = 0
    <Phi> = 0
    <c0> = 0
    <c0i> = 0
    <c1> = 0
    <c1i> = 0
    <Mu_ssd> = 0
    <Sigma_ssd> = 0
    <innerangle> = 5
    <outerangle> = 0
  <EndBdry>
[BlockProps]  = 7
  <BeginBlock>
    <BlockName> = "M530-65A"
    <Mu_x> = 1
    <Mu_y> = 1
    <H_c> = 0
    <H_cAngle> = 0
    <J_re> = 0
    <J_im> = 0
    <Sigma> = 0
    <d_lam> = 0
    <Phi_h> = 0
    <Phi_hx> = 0
    <Phi_hy> = 0
    <LamType> = 0
    <LamFill> = 1
    <NStrands> = 0
    <WireD> = 0
    <BHPoints> = 199
      0	0
      0.018848	12.326973000000001
      0.038573999999999997	22.163343000000001
      0.059312999999999998	30.264441000000001
      0.081240999999999994	37.121026999999998
      0.104587	43.070056000000001
      0.12967000000000001	48.356479
      0.156946	53.171472999999999
      0.187116	57.680774999999997
      0.221361	62.054786999999997
      0.26198100000000002	66.524258000000003
      0.314919	71.574237999999994
      0.442722	82.040378000000004
      0.57165600000000005	92.228953000000004
      0.62506200000000001	96.637904000000006
      0.66604200000000002	100.157055
      0.70059000000000005	103.243889
      0.73102699999999998	106.07473
      0.75854500000000002	108.74006199999999
      0.78385000000000005	111.294023
      0.80740299999999998	113.77241100000001
      0.82952400000000004	116.200692
      0.85044799999999998	118.598054
      0.87034800000000001	120.97966099999999
      0.88936300000000001	123.358001
      0.90760099999999999	125.743736
      0.925149	128.146277
      0.94208199999999997	130.574173
      0.95845899999999995	133.03539799999999
      0.97433099999999995	135.53756799999999
      0.98974300000000004	138.088109
      1.0047330000000001	140.69439700000001
      1.019333	143.36387099999999
      1.0335719999999999	146.10414599999999
      1.047477	148.923102
      1.0610679999999999	151.82898499999999
      1.074368	154.830499
      1.0873930000000001	157.93690100000001
      1.10016	161.158107
      1.1126830000000001	164.50479999999999
      1.1249769999999999	167.98855499999999
      1.137054	171.62196900000001
      1.1489229999999999	175.41881900000001
      1.1605970000000001	179.394229
      1.1720839999999999	183.56486799999999
      1.183392	187.94917699999999
      1.194531	192.56763000000001
      1.2055070000000001	197.44303199999999
      1.2163269999999999	202.600876
      1.226998	208.069751
      1.237525	213.881823
      1.2479150000000001	220.073407
      1.258173	226.685632
      1.268303	233.76522800000001
      1.278311	241.36546999999999
      1.2882	249.547281
      1.297974	258.38055000000003
      1.307639	267.945695
      1.317196	278.33551
      1.3266500000000001	289.657352
      1.336004	302.03570000000002
      1.345261	315.615139
      1.3544240000000001	330.56378699999999
      1.363496	347.07715100000001
      1.372479	365.38233400000001
      1.3813770000000001	385.74240600000002
      1.390191	408.46058799999997
      1.3989229999999999	433.88362499999999
      1.4075770000000001	462.40341799999999
      1.416153	494.45556900000003
      1.424655	530.51313400000004
      1.433084	571.07376399999998
      1.4414419999999999	616.63877300000001
      1.44973	667.683943
      1.457951	724.6241
      1.466105	787.77634999999998
      1.4741949999999999	857.32916
      1.4822219999999999	933.32478600000002
      1.4901880000000001	1015.660001
      1.498094	1104.1052070000001
      1.5059400000000001	1198.337168
      1.51373	1297.9777180000001
      1.521463	1402.631005
      1.5291399999999999	1511.9141030000001
      1.5367649999999999	1625.4788289999999
      1.5443359999999999	1743.0249819999999
      1.5518559999999999	1864.306583
      1.5593250000000001	1989.1331339999999
      1.5667439999999999	2117.3677389999998
      1.5741149999999999	2248.9235370000001
      1.5814379999999999	2383.7594840000002
      1.588714	2521.8761
      1.595944	2663.3115870000001
      1.603129	2808.1384779999998
      1.6102700000000001	2956.460916
      1.6173679999999999	3108.4125450000001
      1.624423	3264.1550130000001
      1.6314360000000001	3423.8770279999999
      1.6384080000000001	3587.7939299999998
      1.64534	3756.1477399999999
      1.6522319999999999	3929.2076630000001
      1.659084	4107.2710040000002
      1.665899	4290.6645090000002
      1.6726749999999999	4479.7461000000003
      1.6794150000000001	4674.9070380000003
      1.686118	4876.5745010000001
      1.692785	5085.214626
      1.699417	5301.3360259999999
      1.7060139999999999	5525.493837
      1.7125760000000001	5758.2943370000003
      1.7191050000000001	6000.4002049999999
      1.7256009999999999	6252.5364829999999
      1.732064	6515.4973220000002
      1.738494	6790.15362
      1.744893	7077.4616260000003
      1.751261	7378.4726540000001
      1.757598	7694.3440220000002
      1.7639039999999999	8026.3513469999998
      1.7701800000000001	8375.9023460000008
      1.776427	8744.552291
      1.782645	9134.0212510000001
      1.788834	9546.2132579999998
      1.7949949999999999	9983.2374779999991
      1.8011280000000001	10447.43145
      1.8072330000000001	10941.38629
      1.8133109999999999	11467.973819999999
      1.8193619999999999	12030.37499
      1.8253870000000001	12632.10929
      1.831385	13277.063829999999
      1.837358	13969.52079
      1.843305	14714.181049999999
      1.8492280000000001	15516.181070000001
      1.8551249999999999	16381.09935
      1.8609979999999999	17314.947639999999
      1.866846	18324.141339999998
      1.872671	19415.442930000001
      1.8784719999999999	20595.871869999999
      1.88425	21872.575840000001
      1.890004	23252.659780000002
      1.8957360000000001	24742.973529999999
      1.9014450000000001	26349.86418
      1.907133	28078.906019999999
      1.912798	29934.628089999998
      1.9184410000000001	31920.26454
      1.9240630000000001	34037.555240000002
      1.9296629999999999	36286.621249999997
      1.935243	38665.931929999999
      1.9408019999999999	41172.369030000002
      1.94634	43801.379809999999
      1.9518580000000001	46547.200389999998
      1.957355	49403.123290000003
      1.962833	52361.781179999998
      1.9682919999999999	55415.421999999999
      1.97373	58556.156179999998
      1.97915	61776.164400000001
      1.98455	65067.860919999999
      1.989932	68424.013019999999
      1.995295	71837.820730000007
      2.0006390000000001	75302.963180000006
      2.0059659999999999	78813.618239999996
      2.0112739999999998	82364.46213
      2.0165639999999998	85950.654729999995
      2.021836	89567.815289999999
      2.027091	93211.992480000001
      2.0323289999999998	96879.631450000001
      2.0375489999999998	100567.53999999999
      2.0427529999999998	104272.8551
      2.047939	107993.01149999999
      2.0531090000000001	111725.7111
      2.058262	115468.8958
      2.063399	119220.7224
      2.0685199999999999	122979.53909999999
      2.0736240000000001	126743.8655
      2.078713	130512.374
      2.0837859999999999	134283.8731
      2.0888429999999998	138057.29300000001
      2.0938850000000002	141831.67240000001
      2.0989110000000002	145606.147
      2.1039219999999998	149379.93890000001
      2.1089190000000002	153152.34830000001
      2.1139000000000001	156922.74419999999
      2.1188660000000001	160690.55840000001
      2.123818	164455.2782
      2.128755	168216.44140000001
      2.1336780000000002	171973.63080000001
      2.1385860000000001	175726.46979999999
      2.1434799999999998	179474.6188
      2.148361	183217.77100000001
      2.1532269999999998	186955.64970000001
      2.1580789999999999	190688.00520000001
      2.1629179999999999	194414.61249999999
      2.1677430000000002	198135.26860000001
      2.172555	201849.79079999999
      2.1773539999999998	205558.0148
      2.1821389999999998	209259.79310000001
      2.1869109999999998	212954.99309999999
      2.1916699999999998	216643.4963
      2.1964160000000001	220325.1967
      2.201149	224000
  <EndBlock>
  <BeginBlock>
    <BlockName> = "ShaftAir"
    <Mu_x> = 1
    <Mu_y> = 1
    <H_c> = 0
    <H_cAngle> = 0
    <J_re> = 0
    <J_im> = 0
    <Sigma> = 0
    <d_lam> = 0
    <Phi_h> = 0
    <Phi_hx> = 0
    <Phi_hy> = 0
    <LamType> = 0
    <LamFill> = 1
    <NStrands> = 0
    <WireD> = 0
    <BHPoints> = 3
      -100	-7.9577471545947675e-011
      0	0
      100	7.9577471545947675e-011
  <EndBlock>
  <BeginBlock>
    <BlockName> = "Copper"
    <Mu_x> = 1
    <Mu_y> = 1
    <H_c> = 0
    <H_cAngle> = 0
    <J_re> = 0
    <J_im> = 0
    <Sigma> = 58
    <d_lam> = 0
    <Phi_h> = 0
    <Phi_hx> = 0
    <Phi_hy> = 0
    <LamType> = 0
    <LamFill> = 1
    <NStrands> = 0
    <WireD> = 0
    <BHPoints> = 0
  <EndBlock>
  <BeginBlock>
    <BlockName> = "Aluminium"
    <Mu_x> = 1
    <Mu_y> = 1
    <H_c> = 0
    <H_cAngle> = 0
    <J_re> = 0
    <J_im> = 0
    <Sigma> = 29
    <d_lam> = 0
    <Phi_h> = 0
    <Phi_hx> = 0
    <Phi_hy> = 0
    <LamType> = 0
    <LamFill> = 1
    <NStrands> = 0
    <WireD> = 0
    <BHPoints> = 0
  <EndBlock>
  <BeginBlock>
    <BlockName> = "Air"
    <Mu_x> = 1
    <Mu_y> = 1
    <H_c> = 0
    <H_cAngle> = 0
    <J_re> = 0
    <J_im> = 0
    <Sigma> = 0
    <d_lam> = 0
    <Phi_h> = 0
    <Phi_hx> = 0
    <Phi_hy> = 0
    <LamType> = 0
    <LamFill> = 1
    <NStrands> = 0
    <WireD> = 0
    <BHPoints> = 0
  <EndBlock>
  <BeginBlock>
    <BlockName> = "DW235"
    <Mu_x> = 1
    <Mu_y> = 1
    <H_c> = 0
    <H_cAngle> = 0
    <J_re> = 0
    <J_im> = 0
    <Sigma> = 0
    <d_lam> = 0
    <Phi_h> = 0
    <Phi_hx> = 0
    <Phi_hy> = 0
    <LamType> = 0
    <LamFill> = 1
    <NStrands> = 0
    <WireD> = 0
    <BHPoints> = 0
  <EndBlock>
  <BeginBlock>
    <BlockName> = "Air"
    <Mu_x> = 1
    <Mu_y> = 1
    <H_c> = 0
    <H_cAngle> = 0
    <J_re> = 0
    <J_im> = 0
    <Sigma> = 0
    <d_lam> = 0
    <Phi_h> = 0
    <Phi_hx> = 0
    <Phi_hy> = 0
    <LamType> = 0
    <LamFill> = 1
    <NStrands> = 0
    <WireD> = 0
    <BHPoints> = 0
  <EndBlock>
[CircuitProps]  = 6
  <BeginCircuit>
    <CircuitName> = "fase1"
    <TotalAmps_re> = 20.431761210167032
    <TotalAmps_im> = 0
    <CircuitType> = 1
  <EndCircuit>
  <BeginCircuit>
    <CircuitName> = "fase2"
    <TotalAmps_re> = -18.466926140463613
    <TotalAmps_im> = -0
    <CircuitType> = 1
  <EndCircuit>
  <BeginCircuit>
    <CircuitName> = "fase3"
    <TotalAmps_re> = -1.9648350697034083
    <TotalAmps_im> = -0
    <CircuitType> = 1
  <EndCircuit>
  <BeginCircuit>
    <CircuitName> = "fase1n"
    <TotalAmps_re> = -20.431761210167032
    <TotalAmps_im> = -0
    <CircuitType> = 1
  <EndCircuit>
  <BeginCircuit>
    <CircuitName> = "fase2n"
    <TotalAmps_re> = 18.466926140463613
    <TotalAmps_im> = 0
    <CircuitType> = 1
  <EndCircuit>
  <BeginCircuit>
    <CircuitName> = "fase3n"
    <TotalAmps_re> = 1.9648350697034083
    <TotalAmps_im> = 0
    <CircuitType> = 1
  <EndCircuit>
[NumPoints] = 131
39.3883078554273	6.2384950950123885	0	2
38.598157182951184	6.1133475229802032	0	2
39.379844019556451	6.524625806126938	0	2
39.309048661375215	7.9251935836063403	0	2
39.306932703275777	7.9259703116363998	0	2
37.808006510475074	5.9881999509480197	0	2
36.776356010648975	5.8248025639225336	0	2
38.495838885581158	8.2617185687736896	0	2
38.885479211569503	9.7943609534566303	0	2
38.856857426458546	9.8077147569997418	0	2
35.986205338172859	5.6996549918903483	0	2
34.954554838346759	5.5362576048648631	0	2
37.89437462720106	10.169055403233184	0	2
38.389132377451553	11.588119575949374	0	2
38.356198612145647	11.603742216162164	0	2
39.468677521516462	5.9637531485730388	0	2
39.834146379809837	4.6098570684873703	0	2
39.832374006232456	4.6084644892208804	0	2
39.164729862874459	4.0385071477356274	0	2
40.008912377083419	2.7012831030569675	0	2
39.985817994080008	2.67973826317133	0	2
39.182102856468731	2.0386593452045796	0	2
40.091160384309923	0.84193766962797412	0	2
40.064666173532373	0.81690256268358485	0	2
40.5	0	0	20
16.77	0	0	2
38.517788909953715	12.51518827218537	0	20
15.949217778269725	5.1822149956678674	0	2
0	0	0	2
67.5	0	0	1
40.774999999999999	0	0	20
64.196314849922857	20.858647120308948	0	1
38.779329451934885	12.60016794563848	0	20
41.502911548080469	1.3537533132888266	0	1
41.509897386234165	1.0869749173009251	0	1
41.495316249229482	1.643806074308573	0	1
64.88349459083544	2.2562470780080233	0	1
65.452419763759352	1.7186523278493322	0	1
65.452563352774604	1.7139356904579943	0	1
65.452666810271225	1.7092180021858567	0	1
64.912656864844806	1.1425847639927273	0	1
41.524478523238848	0.53014376029327726	0	1
41.516883224387861	0.82019652131302356	0	1
53.49462718869183	0.84359313441833672	0	1
53.465464914682464	1.9572554484336324	0	1
40.753168554348804	1.3341206020579219	0	1
40.767140230656196	0.80056381008211885	0	1
41.3751832760518	3.5239926041571912	0	1
41.396121642816091	3.2579454292091539	0	1
41.352418197685047	3.8132503507203026	0	1
64.676491168149013	5.6488947035977652	0	1
65.272772184216919	5.1418119513159448	0	1
65.27316242617654	5.1371092927806465	0	1
65.273512646615245	5.1324034844833406	0	1
64.763898058411073	4.5382848605754669	0	1
41.439825087947121	2.7026405076980051	0	1
41.417060009580368	2.9918982542611161	0	1
53.377164407942935	3.6421294871263052	0	1
53.289757517680854	4.7527393301486036	0	1
40.627495275751961	3.4651482823613078	0	1
40.669372009280529	2.9330539324652332	0	1
41.134048502617212	5.6845728762472838	0	1
41.168882007384184	5.4199861391529298	0	1
41.096176042232102	5.9722427729764895	0	1
64.292213978778449	9.0260591014548019	0	1
64.914216473172303	8.5508782256269669	0	1
64.914852298450214	8.5462024356078761	0	1
64.915448321901124	8.5415214055788482	0	1
64.437625909082612	7.9215458338076816	0	1
41.241587972536266	4.8677295053293701	0	1
41.203715512151156	5.1553994020585776	0	1
53.11339852975307	6.4306830160713764	0	1
52.967986599448906	7.5351962837184967	0	1
40.390464856586853	5.586678232082245	0	1
40.460131866120804	5.0575047578935388	0	1
40.780168161429607	7.8295721292133988	0	1
40.828801327983946	7.5671710438279076	0	1
40.727292124807576	8.114865692917455	0	1
63.731716299789085	12.378483698708427	0	1
64.377735406906609	11.936507137085806	0	1
64.378615072749909	11.931871031598353	0	1
64.379455265554157	11.927227610215539	0	1
63.934734706141832	11.283094400529331	0	1
40.930310531160323	7.0194763947383585	0	1
40.877434494538299	7.3047699584424155	0	1
52.70405251806023	9.2016104898606947	0	1
52.50103411170749	10.296999788039791	0	1
40.04272698075664	7.6928954850942892	0	1
40.13999331386534	7.168093314323305	0	1
40.314512213906241	9.9531110692002258	0	1
40.376811742118889	9.6936148586593607	0	1
40.246777530588318	10.235246330051531	0	1
62.996534416359268	15.696979732561744	0	1
63.664799442732104	15.289418912178327	0	1
63.665920538037867	15.284835198465402	0	1
63.667002597285382	15.280242113024052	0	1
63.25660283942041	14.613716789777403	0	1
40.506845953649467	9.1519833872671903	0	1
40.439111270331537	9.4341186481184955	0	1
52.150248361829149	11.947316988893403	0	1
51.890179938768007	13.030579931677746	0	1
39.585234773607986	9.7780270463082957	0	1
39.709833830033283	9.2590346252265672	0	1
39.738356990631949	12.049369223578642	0	1
39.814152121826453	11.793489148958136	0	1
39.655949316676924	12.327572868438185	0	1
62.088683410929626	18.972451436051795	0	1
62.77736268857101	18.600423452787048	0	1
62.778722140494935	18.595904694489327	0	1
62.780043100336528	18.591374534317374	0	1
62.40508902122869	17.904283997091696	0	1
39.972354926975989	11.259405429478086	0	1
39.889947253020956	11.537609074337631	0	1
51.453503999757615	14.66027672250738	0	1
51.137098389458551	15.728444161467477	0	1
39.019242189480806	11.836357715050699	0	1
39.170832451869813	11.32459756580969	0	1
67.40749359593373	3.5326770463987085	0	1
40.719119279617743	2.1339986158060347	0	1
67.130227937358441	7.0556712705666085	0	1
40.551630283641344	4.2621480897385693	0	1
66.668962990171806	10.559326390215583	0	1
40.272992087766738	6.3786153120154134	0	1
66.024963049531891	14.034039130198755	0	1
39.883968419920926	8.4775991930941377	0	1
65.19999327451211	17.47028554442015	0	1
39.38562556693676	10.553346564055282	0	1
40.68333333333333	0	0	20
38.692149271274495	12.571841387820776	0	20
40.591666666666669	0	0	20
38.604969090614112	12.543514830003074	0	20
[NumSegments] = 96
0	1	0.5	0	0	2
5	6	0.5	0	0	2
10	11	0.5	0	0	2
24	25	-1	4	0	2
27	26	-1	4	0	2
25	28	-1	2	0	2
28	27	-1	2	0	2
29	30	-1	10	0	1
32	31	-1	10	0	1
33	34	0.5	0	0	1
35	33	0.5	0	0	1
36	44	0.5	0	0	1
38	37	0.5	0	0	1
39	38	0.5	0	0	1
41	43	0.5	0	0	1
42	41	0.5	0	0	1
34	42	0.5	0	0	1
43	40	0.5	0	0	1
44	35	0.5	0	0	1
43	44	0.5	0	0	1
33	45	0.5	0	0	1
46	42	0.5	0	0	1
47	48	0.5	0	0	1
49	47	0.5	0	0	1
50	58	0.5	0	0	1
52	51	0.5	0	0	1
53	52	0.5	0	0	1
55	57	0.5	0	0	1
56	55	0.5	0	0	1
48	56	0.5	0	0	1
57	54	0.5	0	0	1
58	49	0.5	0	0	1
57	58	0.5	0	0	1
47	59	0.5	0	0	1
60	56	0.5	0	0	1
61	62	0.5	0	0	1
63	61	0.5	0	0	1
64	72	0.5	0	0	1
66	65	0.5	0	0	1
67	66	0.5	0	0	1
69	71	0.5	0	0	1
70	69	0.5	0	0	1
62	70	0.5	0	0	1
71	68	0.5	0	0	1
72	63	0.5	0	0	1
71	72	0.5	0	0	1
61	73	0.5	0	0	1
74	70	0.5	0	0	1
75	76	0.5	0	0	1
77	75	0.5	0	0	1
78	86	0.5	0	0	1
80	79	0.5	0	0	1
81	80	0.5	0	0	1
83	85	0.5	0	0	1
84	83	0.5	0	0	1
76	84	0.5	0	0	1
85	82	0.5	0	0	1
86	77	0.5	0	0	1
85	86	0.5	0	0	1
75	87	0.5	0	0	1
88	84	0.5	0	0	1
89	90	0.5	0	0	1
91	89	0.5	0	0	1
92	100	0.5	0	0	1
94	93	0.5	0	0	1
95	94	0.5	0	0	1
97	99	0.5	0	0	1
98	97	0.5	0	0	1
90	98	0.5	0	0	1
99	96	0.5	0	0	1
100	91	0.5	0	0	1
99	100	0.5	0	0	1
89	101	0.5	0	0	1
102	98	0.5	0	0	1
103	104	0.5	0	0	1
105	103	0.5	0	0	1
106	114	0.5	0	0	1
108	107	0.5	0	0	1
109	108	0.5	0	0	1
111	113	0.5	0	0	1
112	111	0.5	0	0	1
104	112	0.5	0	0	1
113	110	0.5	0	0	1
114	105	0.5	0	0	1
113	114	0.5	0	0	1
103	115	0.5	0	0	1
116	112	0.5	0	0	1
117	118	0.5	0	0	1
119	120	0.5	0	0	1
121	122	0.5	0	0	1
123	124	0.5	0	0	1
125	126	0.5	0	0	1
127	30	0.050000000000000003	7	0	20
128	32	0.050000000000000003	7	0	20
129	24	0.050000000000000003	5	0	20
130	26	0.050000000000000003	5	0	20
[NumArcSegments] = 64
2	0	14.611333990692401	6.363089555262091	0	0	2	6.363089555262091
2	3	17.010072071959897	1.510642927981978	0	0	2	1.510642927981978
3	4	116.88807121649565	10	0	0	2	10
4	1	60.713190702254678	3.719443379013887	0	0	2	3.719443379013887
7	5	51.665426086848242	2.6277168579059595	0	0	2	2.6277168579059595
7	8	56.802847120345611	4.3083006623276816	0	0	2	4.3083006623276816
8	9	101.70133139004224	10	0	0	2	10
9	6	73.161247576428934	1.8996973647393667	0	0	2	1.8996973647393667
12	10	64.239224411580494	1.5671507464928021	0	0	2	1.5671507464928021
12	13	72.036156580641773	5.604760986689354	0	0	2	5.604760986689354
13	14	95.650042719589706	10	0	0	2	10
14	11	76.553025111340844	1.2756048374101598	0	0	2	1.2756048374101598
0	15	14.611333990692373	6.3630895552622562	0	0	2	6.3630895552622562
16	15	17.010072071959875	1.5106429279819791	0	0	2	1.5106429279819791
17	16	116.88807121606735	10	0	0	2	10
1	17	60.713190702254792	3.7194433790140478	0	0	2	3.7194433790140478
5	18	51.665426086848257	2.6277168579059258	0	0	2	2.6277168579059258
19	18	56.80284712034554	4.3083006623279596	0	0	2	4.3083006623279596
20	19	101.70133139005264	10	0	0	2	10
6	20	73.161247576428892	1.8996973647393456	0	0	2	1.8996973647393456
10	21	64.239224411580409	1.5671507464928061	0	0	2	1.5671507464928061
22	21	72.036156580641929	5.6047609866898673	0	0	2	5.6047609866898673
23	22	95.65004271957099	10	0	0	2	10
11	23	76.553025111340915	1.2756048374101607	0	0	2	1.2756048374101607
24	26	18	0.17683882565766149	0	0	2	0.17683882565766149
25	27	18	0.42707050919113237	0	0	2	0.42707050919113237
29	117	3	0.5	1	0	1	0.29999999999999999
30	46	1.1250000000000002	0.17564616650239828	0	0	1	0.17564616650239828
37	36	89.756277994109467	10	0	0	1	10
40	39	89.756277994110121	10	0	0	1	10
45	118	1.1250000000000009	0.17564616650239828	0	0	1	0.17564616650239828
46	45	0.75000000000000011	0.17564616650239828	0	0	1	0.17564616650239828
51	50	89.756277994109524	10	0	0	1	10
54	53	89.756277994111457	10	0	0	1	10
59	120	1.1249999999999993	0.17564616650239828	0	0	1	0.17564616650239828
60	59	0.750000000000001	0.17564616650239828	0	0	1	0.17564616650239828
65	64	89.75627799411005	10	0	0	1	10
68	67	89.756277994109368	10	0	0	1	10
73	122	1.1250000000000009	0.17564616650239828	0	0	1	0.17564616650239828
74	73	0.75000000000000111	0.17564616650239828	0	0	1	0.17564616650239828
79	78	89.756277994108615	10	0	0	1	10
82	81	89.756277994109467	10	0	0	1	10
87	124	1.1249999999999993	0.17564616650239828	0	0	1	0.17564616650239828
88	87	0.75000000000000266	0.17564616650239828	0	0	1	0.17564616650239828
93	92	89.756277994109894	10	0	0	1	10
96	95	89.75627799410951	10	0	0	1	10
101	126	1.1249999999999993	0.17564616650239828	0	0	1	0.17564616650239828
102	101	0.750000000000001	0.17564616650239828	0	0	1	0.17564616650239828
107	106	89.756277994109368	10	0	0	1	10
110	109	89.75627799411042	10	0	0	1	10
115	32	1.1250000000000024	0.17564616650239828	0	0	1	0.17564616650239828
116	115	0.74999999999999933	0.17564616650239828	0	0	1	0.17564616650239828
117	119	2.9999999999999996	0.5	1	0	1	0.5
118	60	1.125	0.17564616650239828	0	0	1	0.17564616650239828
119	121	2.9999999999999978	0.5	1	0	1	0.5
120	74	1.1250000000000018	0.17564616650239828	0	0	1	0.17564616650239828
121	123	3.0000000000000004	0.5	1	0	1	0.42999999999999999
122	88	1.124999999999996	0.17564616650239828	0	0	1	0.17564616650239828
123	125	3.0000000000000004	0.5	1	0	1	0.42999999999999999
124	102	1.1249999999999962	0.17564616650239828	0	0	1	0.17564616650239828
125	31	2.9999999999999942	0.5	1	0	1	0.29999999999999999
126	116	1.1250000000000024	0.17564616650239828	0	0	1	0.17564616650239828
127	128	18	0.050000000000000003	11	0	20	0.050000000000000003
129	130	18	0.050000000000000003	11	0	20	0.050000000000000003
[NumHoles] = 0
[NumBlockLabels] = 34
39.331941794735812	7.4585965671232248	7	0.5	0	0	2	1	0
38.746058507869733	9.2879314264100206	7	0.5	0	0	2	1	0
38.213235205599418	11.120305731781574	7	0.5	0	0	2	1	0
39.711732635852911	5.0606915687604292	7	0.5	0	0	2	1	0
39.719820078012631	3.1398428379879753	7	0.5	0	0	2	1	0
39.779309804770335	1.2324998591720453	7	0.5	0	0	2	1	0
25.759044155063606	4.0798317917947671	1	0.5	0	0	22	1	0
8.2817667358902298	1.3117029893623358	7	0.5	0	0	2	1	0
47.494971718960656	1.2436996043634549	3	0.5	1	0	1	1	0
59.465120384413638	1.5571489784885142	3	0.5	1	0	1	1	0
41.135462406056256	1.0771699922772264	7	0.5	0	0	10	1	0
66.464716394312362	1.7404398506197158	1	0.5	0	0	12	1	0
47.364791302813991	3.7276899189233044	3	0.5	1	0	1	1	0
59.302130622809798	4.6671788983516045	3	0.5	1	0	1	1	0
41.022712962892193	3.2285575287560158	7	0.5	0	0	10	1	0
66.28254122658133	5.2165491272050897	1	0.5	0	0	12	1	0
47.104787285992586	6.2014628945239334	3	0.5	3	0	1	-1	0
58.97659784320939	7.7644164052659397	3	0.5	3	0	1	-1	0
40.79752311495065	5.371095813462766	7	0.5	0	0	10	1	0
65.918690220591216	8.6783602052306783	1	0.5	0	0	12	1	0
46.715672321433907	8.6582380913890749	3	0.5	3	0	1	-1	0
58.489414308333814	10.840372186511409	3	0.5	3	0	1	-1	0
40.460510091952095	7.4989122978851093	7	0.5	0	0	10	1	0
65.374160666658426	12.116384501159153	1	0.5	0	0	12	1	0
46.198512946208737	11.091281659472468	3	0.5	2	0	1	1	0
57.841915354388426	13.886615261098681	3	0.5	2	0	1	1	0
40.012597623167075	9.6061747849419508	7	0.5	0	0	10	1	0
64.650445082440527	15.521198629369509	1	0.5	0	0	12	1	0
45.55472665821727	13.493924795472783	3	0.5	2	0	1	1	0
57.035875730998903	16.894796088502076	3	0.5	2	0	1	1	0
39.455013405538516	11.687107414630288	7	0.5	0	0	10	1	0
63.749527122048981	18.88347023100205	1	0.5	0	0	12	1	0
40.227723038822795	6.3714453990344024	7	0.050000000000000003	0	0	20	1	0
40.046646843047021	6.3427657471103611	7	0.050000000000000003	0	0	20	1	0
