[Format]      =  4.0
[Frequency]   =  0
[Precision]   =  1e-008
[MinAngle]    =  15
[DoSmartMesh] =  1
[Depth]       =  1500
[LengthUnits] =  millimeters
[ProblemType] =  planar
[Coordinates] =  cartesian
[ACSolver]    =  0
[PrevType]    =  0
[PrevSoln]    =  ""
[Comment]     =  "Add comments here."
[PointProps]   = 0
[BdryProps]   = 11
  <BeginBdry>
    <BdryName> = "A=0"
    <BdryType> = 0
    <A_0> = 0
    <A_1> = 0
    <A_2> = 0
    <Phi> = 0
    <c0> = 0
    <c0i> = 0
    <c1> = 0
    <c1i> = 0
    <Mu_ssd> = 0
    <Sigma_ssd> = 0
    <innerangle> = 0
    <outerangle> = 0
  <EndBdry>
  <BeginBdry>
    <BdryName> = "APr1"
    <BdryType> = 5
    <A_0> = 0
    <A_1> = 0
    <A_2> = 0
    <Phi> = 0
    <c0> = 0
    <c0i> = 0
    <c1> = 0
    <c1i> = 0
    <Mu_ssd> = 0
    <Sigma_ssd> = 0
    <innerangle> = 0
    <outerangle> = 0
  <EndBdry>
  <BeginBdry>
    <BdryName> = "APr2"
    <BdryType> = 5
    <A_0> = 0
    <A_1> = 0
    <A_2> = 0
    <Phi> = 0
    <c0> = 0
    <c0i> = 0
    <c1> = 0
    <c1i> = 0
    <Mu_ssd> = 0
    <Sigma_ssd> = 0
    <innerangle> = 0
    <outerangle> = 0
  <EndBdry>
  <BeginBdry>
    <BdryName> = "APr3"
    <BdryType> = 5
    <A_0> = 0
    <A_1> = 0
    <A_2> = 0
    <Phi> = 0
    <c0> = 0
    <c0i> = 0
    <c1> = 0
    <c1i> = 0
    <Mu_ssd> = 0
    <Sigma_ssd> = 0
    <innerangle> = 0
    <outerangle> = 0
  <EndBdry>
  <BeginBdry>
    <BdryName> = "APg1"
    <BdryType> = 5
    <A_0> = 0
    <A_1> = 0
    <A_2> = 0
    <Phi> = 0
    <c0> = 0
    <c0i> = 0
    <c1> = 0
    <c1i> = 0
    <Mu_ssd> = 0
    <Sigma_ssd> = 0
    <innerangle> = 0
    <outerangle> = 0
  <EndBdry>
  <BeginBdry>
    <BdryName> = "APg2"
    <BdryType> = 5
    <A_0> = 0
    <A_1> = 0
    <A_2> = 0
    <Phi> = 0
    <c0> = 0
    <c0i> = 0
    <c1> = 0
    <c1i> = 0
    <Mu_ssd> = 0
    <Sigma_ssd> = 0
    <innerangle> = 0
    <outerangle> = 0
  <EndBdry>
  <BeginBdry>
    <BdryName> = "APg3"
    <BdryType> = 5
    <A_0> = 0
    <A_1> = 0
    <A_2> = 0
    <Phi> = 0
    <c0> = 0
    <c0i> = 0
    <c1> = 0
    <c1i> = 0
    <Mu_ssd> = 0
    <Sigma_ssd> = 0
    <innerangle> = 0
    <outerangle> = 0
  <EndBdry>
  <BeginBdry>
    <BdryName> = "APs1"
    <BdryType> = 5
    <A_0> = 0
    <A_1> = 0
    <A_2> = 0
    <Phi> = 0
    <c0> = 0
    <c0i> = 0
    <c1> = 0
    <c1i> = 0
    <Mu_ssd> = 0
    <Sigma_ssd> = 0
    <innerangle> = 0
    <outerangle> = 0
  <EndBdry>
  <BeginBdry>
    <BdryName> = "APs2"
    <BdryType> = 5
    <A_0> = 0
    <A_1> = 0
    <A_2> = 0
    <Phi> = 0
    <c0> = 0
    <c0i> = 0
    <c1> = 0
    <c1i> = 0
    <Mu_ssd> = 0
    <Sigma_ssd> = 0
    <innerangle> = 0
    <outerangle> = 0
  <EndBdry>
  <BeginBdry>
    <BdryName> = "APs3"
    <BdryType> = 5
    <A_0> = 0
    <A_1> = 0
    <A_2> = 0
    <Phi> = 0
    <c0> = 0
    <c0i> = 0
    <c1> = 0
    <c1i> = 0
    <Mu_ssd> = 0
    <Sigma_ssd> = 0
    <innerangle> = 0
    <outerangle> = 0
  <EndBdry>
  <BeginBdry>
    <BdryName> = "AGap"
    <BdryType> = 7
    <A_0> = 0
    <A_1> = 0
    <A_2> = 0
    <Phi> = 0
    <c0> = 0
    <c0i> = 0
    <c1> = 0
    <c1i> = 0
    <Mu_ssd> = 0
    <Sigma_ssd> = 0
    <innerangle> = 0
    <outerangle> = 0
  <EndBdry>
[BlockProps]  = 13
  <BeginBlock>
    <BlockName> = "M270-35A"
    <Mu_x> = 1
    <Mu_y> = 1
    <H_c> = 0
    <H_cAngle> = 0
    <J_re> = 0
    <J_im> = 0
    <Sigma> = 0
    <d_lam> = 0
    <Phi_h> = 0
    <Phi_hx> = 0
    <Phi_hy> = 0
    <LamType> = 0
    <LamFill> = 1
    <NStrands> = 0
    <WireD> = 0
    <BHPoints> = 200
      0	0
      0.0045422769999999999	3.2767874890000002
      0.0090353559999999996	6.114592773
      0.013222249	8.4602422570000009
      0.017196487	10.462328400000001
      0.020991169	12.199266809999999
      0.024640190999999999	13.72982376
      0.028168996000000002	15.09561901
      0.031597466999999997	16.327217480000002
      0.034941272000000002	17.447599879999999
      0.038212956999999999	18.47443998
      0.041422729999999998	19.421601849999998
      0.044579012000000001	20.300151339999999
      0.047688851999999997	21.119056130000001
      0.050758219	21.885681389999998
      0.053792226999999998	22.60614816
      0.056795300999999999	23.285597330000002
      0.059771310000000001	23.928387470000001
      0.062723663999999998	24.538245379999999
      0.065655396000000005	25.11838217
      0.068569221	25.67158405
      0.071467592999999996	26.200284
      0.074352739000000001	26.70661905
      0.077226698999999996	27.19247648
      0.080091349000000006	27.65953137
      0.082948429000000004	28.109277410000001
      0.085799557999999998	28.54305239
      0.088646256000000007	28.96205934
      0.091489953999999998	29.36738437
      0.094332005999999996	29.760011540000001
      0.097173704999999999	30.140835630000002
      0.100016285	30.510672870000001
      0.102860934	30.870270300000001
      0.105708802	31.220313650000001
      0.108561001	31.561434299999998
      0.11141862	31.894215259999999
      0.114282722	32.21919639
      0.117154355	32.536878999999999
      0.120034552	32.847729870000002
      0.12292433699999999	33.152184810000001
      0.12582473199999999	33.45065185
      0.12873675200000001	33.743513989999997
      0.13166142	34.031131799999997
      0.13459976100000001	34.313845620000002
      0.137552811	34.591977620000002
      0.14052161499999999	34.865833639999998
      0.14350723800000001	35.135704879999999
      0.14651076099999999	35.401869419999997
      0.14953328699999999	35.664593680000003
      0.15257594699999999	35.924133650000002
      0.155639899	36.180736189999998
      0.158726334	36.434640119999997
      0.161836481	36.686077320000003
      0.16497160599999999	36.93527375
      0.16813302299999999	37.182450420000002
      0.17132209400000001	37.427824389999998
      0.17454023399999999	37.671609650000001
      0.17778891699999999	37.914018050000003
      0.18106968000000001	38.155260249999998
      0.18438413100000001	38.395546590000002
      0.18773395400000001	38.635088090000004
      0.191120915	38.87409736
      0.19454686800000001	39.112789630000002
      0.19801376800000001	39.351383830000003
      0.20152367299999999	39.590103640000002
      0.20507876	39.829178749999997
      0.208681327	40.068846100000002
      0.21233381500000001	40.309351300000003
      0.216038808	40.550950149999998
      0.21979905799999999	40.793910310000001
      0.22361749	41.038513199999997
      0.227497227	41.285056060000002
      0.2314416	41.53385428
      0.23545417299999999	41.785244059999997
      0.23953876299999999	42.039585369999998
      0.24369946200000001	42.297265359999997
      0.247940667	42.558702250000003
      0.25226710400000002	42.824349750000003
      0.25668386300000001	43.0947022
      0.26119642799999998	43.370300520000001
      0.26581071499999998	43.651739030000002
      0.27054201700000002	43.94020278
      0.275438138	44.23873004
      0.28051031599999998	44.548036490000001
      0.28576849199999999	44.868763260000001
      0.29122336399999998	45.201605100000002
      0.296886504	45.547319020000003
      0.30277045699999999	45.906731970000003
      0.30888884599999999	46.280749559999997
      0.31525650100000002	46.670366299999998
      0.321889598	47.076677459999999
      0.328805825	47.50089294
      0.33602457000000002	47.944353649999996
      0.34356714500000002	48.408550759999997
      0.351457032	48.895148689999999
      0.35972019	49.406012390000001
      0.36838539799999998	49.943240269999997
      0.37748466600000002	50.509203810000002
      0.38705371900000002	51.106595769999998
      0.39713256899999999	51.738489119999997
      0.40776619800000002	52.408409570000003
      0.41900536300000002	53.120425429999997
      0.43090757000000002	53.879259759999997
      0.44353822799999998	54.690431349999997
      0.45697202599999998	55.560433060000001
      0.47129457299999999	56.49695913
      0.486604327	57.509196449999997
      0.503014823	58.60819978
      0.520657166	59.807376320000003
      0.53968265500000001	61.123111049999999
      0.56026517099999995	62.575567960000001
      0.58260257699999995	64.189698669999999
      0.60691558199999995	65.996464399999994
      0.63344113800000001	68.034201780000004
      0.662415215	70.349880479999996
      0.69403682899999997	72.999622560000006
      0.72840307800000004	76.047204840000006
      0.76540934699999996	79.558509650000005
      0.80463064699999998	83.589963030000007
      0.84524547999999999	88.171938179999998
      0.88609953900000005	93.294734669999997
      0.92594964300000004	98.90894376
      0.963771241	104.9435902
      0.99893980100000002	111.3300564
      1.0312218310000001	118.0174305
      1.0606584889999999	124.9760964
      1.0874410889999999	132.19454709999999
      1.1118223309999999	139.6744898
      1.1340651580000001	147.42664859999999
      1.1544176930000001	155.46782519999999
      1.173103241	163.8190534
      1.1903180360000001	172.50453999999999
      1.2062325739999999	181.55112829999999
      1.220994358	190.98810510000001
      1.234730984	200.84723579999999
      1.2475531	211.16296399999999
      1.2595570490000001	221.97273730000001
      1.270827143	233.31744900000001
      1.281437594	245.2419931
      1.291454146	257.79594609999998
      1.3009354369999999	271.03439809999998
      1.309934159	285.01896390000002
      1.318498043	299.81902289999999
      1.326670706	315.51324579999999
      1.3344924010000001	332.19149570000002
      1.3420006879999999	349.95721329999998
      1.3492310569999999	368.93044570000001
      1.356217531	389.25173360000002
      1.362993272	411.08716509999999
      1.3695912379999999	434.63503709999998
      1.3760449050000001	460.1347695
      1.382389146	487.87903890000001
      1.3886613240000001	518.23060969999995
      1.394902732	551.64618570000005
      1.401160583	588.71104339999999
      1.4074908660000001	630.19074279999995
      1.4139626249999999	677.11087850000001
      1.420664664	730.8848299
      1.4277165590000001	793.52783980000004
      1.435287779	868.03580320000003
      1.4436331710000001	959.10175079999999
      1.453164339	1074.5891859999999
      1.464608755	1228.9034079999999
      1.479413587	1451.8548430000001
      1.5007295060000001	1812.597843
      1.531321148	2396.2922779999999
      1.5749716949999999	3340.7297119999998
      1.6351726849999999	4868.8615820000005
      1.6746062129999999	6056.7860730000002
      1.7053540309999999	7126.7301200000002
      1.7307497590000001	8135.9466300000004
      1.752580204	9119.3875740000003
      1.771845345	10098.25848
      1.789165838	11087.22133
      1.804957089	12097.58993
      1.819514077	13138.977849999999
      1.8330565510000001	14220.25051
      1.845754994	15350.15127
      1.8577465099999999	16537.778849999999
      1.869145125	17793.012470000001
      1.8800488470000001	19126.948680000001
      1.8905448170000001	20552.403480000001
      1.9007133519999999	22084.53774
      1.9106314310000001	23741.68173
      1.920376064	25546.46932
      1.930027954	27527.455720000002
      1.9396760099999999	29721.505959999999
      1.9494234969999999	32177.45292
      1.959397184	34961.935420000002
      1.969762051	38169.180130000001
      1.980746793	41938.394229999998
      1.9926918389999999	46487.096960000003
      2.0061495709999999	52181.595710000001
      2.022124024	59707.652569999998
      2.042772002	70576.241299999994
      2.0725625070000002	88161.987269999998
      2.1158769670000002	116616.322
      2.1803765140000002	162656.4026
      2.2792825830000001	237150.818
      2.3747656959999999	310949.48619999998
  <EndBlock>
  <BeginBlock>
    <BlockName> = "ShaftAir"
    <Mu_x> = 1
    <Mu_y> = 1
    <H_c> = 0
    <H_cAngle> = 0
    <J_re> = 0
    <J_im> = 0
    <Sigma> = 0
    <d_lam> = 0
    <Phi_h> = 0
    <Phi_hx> = 0
    <Phi_hy> = 0
    <LamType> = 0
    <LamFill> = 1
    <NStrands> = 0
    <WireD> = 0
    <BHPoints> = 3
      -100	-7.9577471545947675e-011
      0	0
      100	7.9577471545947675e-011
  <EndBlock>
  <BeginBlock>
    <BlockName> = "Copper"
    <Mu_x> = 1
    <Mu_y> = 1
    <H_c> = 0
    <H_cAngle> = 0
    <J_re> = 0
    <J_im> = 0
    <Sigma> = 58
    <d_lam> = 0
    <Phi_h> = 0
    <Phi_hx> = 0
    <Phi_hy> = 0
    <LamType> = 0
    <LamFill> = 1
    <NStrands> = 0
    <WireD> = 0
    <BHPoints> = 0
  <EndBlock>
  <BeginBlock>
    <BlockName> = "Aluminium"
    <Mu_x> = 1
    <Mu_y> = 1
    <H_c> = 0
    <H_cAngle> = 0
    <J_re> = 0
    <J_im> = 0
    <Sigma> = 29
    <d_lam> = 0
    <Phi_h> = 0
    <Phi_hx> = 0
    <Phi_hy> = 0
    <LamType> = 0
    <LamFill> = 1
    <NStrands> = 0
    <WireD> = 0
    <BHPoints> = 0
  <EndBlock>
  <BeginBlock>
    <BlockName> = "BMN-52UH"
    <Mu_x> = 1.05
    <Mu_y> = 1.05
    <H_c> = 1098926.9880154678
    <H_cAngle> = 0
    <J_re> = 0
    <J_im> = 0
    <Sigma> = 0.66600000000000004
    <d_lam> = 0
    <Phi_h> = 0
    <Phi_hx> = 0
    <Phi_hy> = 0
    <LamType> = 0
    <LamFill> = 1
    <NStrands> = 0
    <WireD> = 0
    <BHPoints> = 0
  <EndBlock>
  <BeginBlock>
    <BlockName> = "DW235"
    <Mu_x> = 1
    <Mu_y> = 1
    <H_c> = 0
    <H_cAngle> = 0
    <J_re> = 0
    <J_im> = 0
    <Sigma> = 0
    <d_lam> = 0
    <Phi_h> = 0
    <Phi_hx> = 0
    <Phi_hy> = 0
    <LamType> = 0
    <LamFill> = 1
    <NStrands> = 0
    <WireD> = 0
    <BHPoints> = 0
  <EndBlock>
  <BeginBlock>
    <BlockName> = "Air"
    <Mu_x> = 1
    <Mu_y> = 1
    <H_c> = 0
    <H_cAngle> = 0
    <J_re> = 0
    <J_im> = 0
    <Sigma> = 0
    <d_lam> = 0
    <Phi_h> = 0
    <Phi_hx> = 0
    <Phi_hy> = 0
    <LamType> = 0
    <LamFill> = 1
    <NStrands> = 0
    <WireD> = 0
    <BHPoints> = 0
  <EndBlock>
  <BeginBlock>
    <BlockName> = "BMN-52UH_1"
    <Mu_x> = 1.05
    <Mu_y> = 1.05
    <H_c> = 1098926.9880154678
    <H_cAngle> = 0
    <J_re> = 0
    <J_im> = 0
    <Sigma> = 0.66600000000000004
    <d_lam> = 0
    <Phi_h> = 0
    <Phi_hx> = 0
    <Phi_hy> = 0
    <LamType> = 0
    <LamFill> = 1
    <NStrands> = 0
    <WireD> = 0
    <BHPoints> = 0
  <EndBlock>
  <BeginBlock>
    <BlockName> = "BMN-52UH_2"
    <Mu_x> = 1.05
    <Mu_y> = 1.05
    <H_c> = 1098926.9880154678
    <H_cAngle> = 0
    <J_re> = 0
    <J_im> = 0
    <Sigma> = 0.66600000000000004
    <d_lam> = 0
    <Phi_h> = 0
    <Phi_hx> = 0
    <Phi_hy> = 0
    <LamType> = 0
    <LamFill> = 1
    <NStrands> = 0
    <WireD> = 0
    <BHPoints> = 0
  <EndBlock>
  <BeginBlock>
    <BlockName> = "BMN-52UH_3"
    <Mu_x> = 1.05
    <Mu_y> = 1.05
    <H_c> = 1098926.9880154678
    <H_cAngle> = 0
    <J_re> = 0
    <J_im> = 0
    <Sigma> = 0.66600000000000004
    <d_lam> = 0
    <Phi_h> = 0
    <Phi_hx> = 0
    <Phi_hy> = 0
    <LamType> = 0
    <LamFill> = 1
    <NStrands> = 0
    <WireD> = 0
    <BHPoints> = 0
  <EndBlock>
  <BeginBlock>
    <BlockName> = "BMN-52UH_4"
    <Mu_x> = 1.05
    <Mu_y> = 1.05
    <H_c> = 1098926.9880154678
    <H_cAngle> = 0
    <J_re> = 0
    <J_im> = 0
    <Sigma> = 0.66600000000000004
    <d_lam> = 0
    <Phi_h> = 0
    <Phi_hx> = 0
    <Phi_hy> = 0
    <LamType> = 0
    <LamFill> = 1
    <NStrands> = 0
    <WireD> = 0
    <BHPoints> = 0
  <EndBlock>
  <BeginBlock>
    <BlockName> = "BMN-52UH_5"
    <Mu_x> = 1.05
    <Mu_y> = 1.05
    <H_c> = 1098926.9880154678
    <H_cAngle> = 0
    <J_re> = 0
    <J_im> = 0
    <Sigma> = 0.66600000000000004
    <d_lam> = 0
    <Phi_h> = 0
    <Phi_hx> = 0
    <Phi_hy> = 0
    <LamType> = 0
    <LamFill> = 1
    <NStrands> = 0
    <WireD> = 0
    <BHPoints> = 0
  <EndBlock>
  <BeginBlock>
    <BlockName> = "BMN-52UH_6"
    <Mu_x> = 1.05
    <Mu_y> = 1.05
    <H_c> = 1098926.9880154678
    <H_cAngle> = 0
    <J_re> = 0
    <J_im> = 0
    <Sigma> = 0.66600000000000004
    <d_lam> = 0
    <Phi_h> = 0
    <Phi_hx> = 0
    <Phi_hy> = 0
    <LamType> = 0
    <LamFill> = 1
    <NStrands> = 0
    <WireD> = 0
    <BHPoints> = 0
  <EndBlock>
[CircuitProps]  = 6
  <BeginCircuit>
    <CircuitName> = "fase1"
    <TotalAmps_re> = 0
    <TotalAmps_im> = 0
    <CircuitType> = 1
  <EndCircuit>
  <BeginCircuit>
    <CircuitName> = "fase2"
    <TotalAmps_re> = 0
    <TotalAmps_im> = 0
    <CircuitType> = 1
  <EndCircuit>
  <BeginCircuit>
    <CircuitName> = "fase3"
    <TotalAmps_re> = 0
    <TotalAmps_im> = 0
    <CircuitType> = 1
  <EndCircuit>
  <BeginCircuit>
    <CircuitName> = "fase1n"
    <TotalAmps_re> = 0
    <TotalAmps_im> = 0
    <CircuitType> = 1
  <EndCircuit>
  <BeginCircuit>
    <CircuitName> = "fase2n"
    <TotalAmps_re> = 0
    <TotalAmps_im> = 0
    <CircuitType> = 1
  <EndCircuit>
  <BeginCircuit>
    <CircuitName> = "fase3n"
    <TotalAmps_re> = 0
    <TotalAmps_im> = 0
    <CircuitType> = 1
  <EndCircuit>
[NumPoints] = 235
1142.8801390974429	62.129389221276192	0	2
1143.4131036423555	49.922494238973464	0	2
1151.706310142009	62.901579130016486	0	2
1153.4262573678184	64.887836413824203	0	2
1151.4996081783174	66.556167579150738	0	2
1139.0710478169265	65.46880944358135	0	2
1139.756784557909	49.762855900172141	0	2
1126.0781482635002	50.748854828993444	0	2
1127.1208158724473	49.793425994776918	0	2
1132.7166129123655	50.037743769864399	0	2
1133.6720417465817	51.08041137881159	0	2
1132.800597358714	71.023438832629324	0	2
1146.2333217270361	72.199352323178971	0	2
1152.5086516283109	79.538483904915466	0	2
1151.6187568630323	80.299225654877233	0	2
1124.8900566169057	77.960767392558566	0	2
1108.5642818001943	50.995499226910383	0	2
1109.6069494091412	50.040070392693863	0	2
1119.1403208476938	50.456306378798146	0	2
1120.0957496819105	51.498973987745345	0	2
1118.7029494628064	83.399483033366749	0	2
1144.2284348695109	85.632673637449784	0	2
1151.407959278084	94.139650578690663	0	2
1147.4273799958062	97.49908910945814	0	2
1106.6895093501091	93.934987251774118	0	2
1139.2238200129964	61.96975088247487	0	2
1132.8013151090174	71.023470182274806	0	2
1125.2074216259357	70.691913632456647	0	2
1107.1714815810901	82.896008272531787	0	2
1143.9460681872681	37.715599256670735	0	2
1152.8059537713539	37.715599256670728	0	2
1154.6924698075613	35.886803559447578	0	2
1152.9185567417608	34.056902356762933	0	2
1140.4425212988915	34.056902356762933	0	2
1127.1715761127825	48.6311054307833	0	2
1126.216147278566	47.588437821836102	0	2
1132.7673731527004	48.875423205870774	0	2
1133.8100407616478	47.919994371654255	0	2
1134.6814851495155	27.976966917836521	0	2
1148.1655815598419	27.977666633090948	0	2
1155.0552438987456	21.211931595435054	0	2
1154.2350384639724	20.376525258270984	0	2
1127.4042389251606	20.376525258270977	0	2
1109.7458516163858	46.858965546728001	0	2
1108.7904227821691	45.81629793778081	0	2
1119.2792230549385	47.275201532832291	0	2
1120.3218906638856	46.319772698615765	0	2
1121.7146908829895	14.41926365299436	0	2
1147.3376794971625	14.41926365299436	0	2
1155.2313155416546	6.5703951097456041	0	2
1151.5586779256798	2.8768099129170679	0	2
1110.6651952322543	2.8768099129170679	0	2
1140.2897491028216	37.555960917869413	0	2
1134.6807673992123	27.976935568191038	0	2
1127.0868739161306	27.645379018372886	0	2
1110.1832230012733	13.915788892159398	0	2
1156.25	0	0	20
386.11000000000001	0	0	2
1151.8501196685809	100.77382755197975	0	20
384.64073488020387	33.651703832298296	0	2
0	0	0	2
1250	0	0	1
1158.25	0	0	20
1245.2433726146819	108.94467843457271	0	1
1153.8425090647643	100.94813903747507	0	20
1169.3517468329032	4.6795943317447453	0	1
1169.3533019535801	4.2519073297981524	0	1
1169.3624357730764	4.720074184676232	0	1
1221.0838601884027	4.9081394197183066	0	1
1221.0856778207983	4.4400123856185107	0	1
1221.0872901661373	3.9719103384410768	0	1
1169.3658401069924	3.7838192767845809	0	1
1169.3548570742569	3.8242203278515592	0	1
1195.2211471876556	3.8778322406226207	0	1
1195.2177428537395	4.8140871485142718	0	1
1158.2407091730565	4.6391932806777678	0	1
1158.2438194144102	3.7838192767845817	0	1
1169.286795733542	13.183161512231891	0	1
1169.2914610133305	12.755497128399334	0	1
1169.2971900158716	13.223718026261562	0	1
1221.0158791573404	13.787903785607549	0	1
1221.0211010275268	13.319802347974258	0	1
1221.0261174343764	12.851724403726172	0	1
1169.3074028375818	12.287512631963214	0	1
1169.296126293119	12.327832744566779	0	1
1195.1613425671649	12.569546551626591	0	1
1195.1511297454545	13.505751945924942	0	1
1158.1763456779847	13.061960495629863	0	1
1158.1856762375617	12.20663172796475	0	1
1169.1600072110955	21.686031504707497	0	1
1169.1677824032733	21.258412355906859	0	1
1169.170106285882	21.726662535014832	0	1
1220.8833250242903	22.666938981849988	0	1
1220.8919508561103	22.19888789610399	0	1
1220.9003710591794	21.730858808963589	0	1
1169.1871270552845	20.790556165284571	0	1
1169.1755575954512	20.830793207106225	0	1
1195.0383321550196	21.260596125484	0	1
1195.0213113856171	22.196702495214261	0	1
1158.0507323330414	21.484036932254142	0	1
1158.0662827173974	20.628798634652867	0	1
1168.9713879707408	30.187754637139783	0	1
1168.9822726641191	29.760203337896709	0	1
1168.9811913038975	30.228458034963484	0	1
1220.6862047993429	31.544775443016491	0	1
1220.6982341366217	31.076799461915719	0	1
1220.71005769061	30.608843983477563	0	1
1169.0050191208531	29.292500195539212	0	1
1168.9931573574975	29.332652038653634	0	1
1194.8521224565925	29.950521338335658	0	1
1194.8282946396371	30.886479177759934	0	1
1157.8638757812553	29.904977191264667	0	1
1157.8856451680124	29.049874592778519	0	1
1168.7209479875564	38.687881298148369	0	1
1168.7349416065013	38.260420459400294	0	1
1168.730455060637	38.728654910900005	0	1
1220.4245289071494	40.420943667072706	0	1
1220.4399611137185	39.953067539403214	0	1
1220.4551873933403	39.485210417369068	0	1
1168.7610886650177	37.792895099664626	0	1
1168.7489352254461	37.832959620652211	0	1
1194.6027233195343	38.638862625783908	0	1
1194.5720897151534	39.574622437019279	0	1
1157.6157859044854	38.324335933461967	0	1
1157.643773142375	37.469414255965802	0	1
1168.4087005059946	47.185961960781839	0	1
1168.4258023104571	46.758614188682209	0	1
1168.41791081622	47.226803632159658	0	1
1220.0983111863695	49.294974240208568	0	1
1220.1171454461012	48.827222709475677	0	1
1220.1357736461184	48.359488686345749	0	1
1168.455348587976	46.291291336523436	0	1
1168.4429041149194	46.331266416582579	0	1
1194.2901479332522	47.325160507196564	0	1
1194.2527101614965	48.260672802832786	0	1
1157.3064758228993	46.741667903284643	0	1
1157.3406794318241	45.886972359085398	0	1
1168.0346620391817	55.681547206290851	0	1
1168.0548711247372	55.254335101013631	0	1
1168.0435750994668	55.722454776393889	0	1
1219.707568888942	58.166397861663107	0	1
1219.7298042057907	57.698795664782871	0	1
1219.7518333410567	57.231209476547335	0	1
1168.0878150587114	54.78723947067725	0	1
1168.0750802102928	54.82712299573641	0	1
1193.9144128282135	56.008955610006439	0	1
1193.8701728689693	56.944170915723078	0	1
1156.9359618942794	55.156527952356655	0	1
1156.9763800653905	54.30210374180222	0	1
1167.5988523680426	64.174187747895544	0	1
1167.6221676659391	63.747133902439991	0	1
1167.6074677070226	64.215159053337757	0	1
1219.2523226791691	67.034745368543312	0	1
1219.2779578772265	66.567317234534286	0	1
1219.3033867827357	66.0999036093651	0	1
1167.658507514137	63.28029019615493	0	1
1167.6454829638355	63.320080056984438	0	1
1193.4755378750697	64.689788694005131	0	1
1193.4244980679553	65.624657551187951	0	1
1156.504263713156	63.568471063028809	0	1
1156.5508943089492	62.714363372117688	0	1
1167.1012945402563	72.663434454545964	0	1
1167.1277148174704	72.236561453541782	0	1
1167.1096117023114	72.704467328570686	0	1
1218.7325966326266	75.899547760635656	0	1
1218.7616303561822	75.432318409311165	0	1
1218.7904576871338	74.965102066254332	0	1
1167.1674486580691	71.769994360214042	0	1
1167.1541350946845	71.809688452537628	0	1
1192.9735462836063	73.367200675629789	0	1
1192.9157093278484	74.301673643986433	0	1
1156.0114041097738	71.97705237191343	0	1
1156.0642446642023	71.12330636990508	0	1
1166.5420148690371	81.148838374674185	0	1
1166.5715387283394	80.722168793187208	0	1
1166.5500334143164	81.189930647268724	0	1
1218.1484182348897	84.760336225209102	0	1
1218.180848948502	84.293330365869863	0	1
1218.2130731803704	83.826336013538167	0	1
1166.6146644600256	80.255902987094174	0	1
1166.6010625876422	80.295499211700232	0	1
1192.4084646015162	82.040732652241701	0	1
1192.3438335558071	82.974760312416279	0	1
1155.4574091488828	80.381827193410842	0	1
1155.5164568674879	79.52848803043689	0	1
1165.9210429317429	89.62995075993706	0	1
1165.9536688117721	89.203507162275301	0	1
1165.9287624361878	89.671100257947458	0	1
1217.4998183800776	93.616642161808073	0	1
1217.5356443686574	93.149884491935524	0	1
1217.5712637972724	92.683136827201835	0	1
1166.0001841538519	88.737567301760862	0	1
1165.9862946918013	88.777063564613542	0	1
1191.7803227129946	90.709925926395172	0	1
1191.7089009953302	91.643458882581783	0	1
1154.8423081283597	88.78235104322647	0	1
1154.9075598884181	87.929463847902952	0	1
1165.2384115683103	98.106323088948116	0	1
1165.2741377436553	97.680128027468513	0	1
1165.2458316236766	98.147527636194042	0	1
1216.7868313692227	102.46799720703437	0	1
1216.8260507381219	102.00151241098445	0	1
1216.8650634797596	101.53503611767566	0	1
1165.3240402361778	97.214538753639033	0	1
1165.309863919	97.253932965988895	0	1
1191.0891538371595	99.374322030095655	0	1
1191.0109452246584	100.30731091265068	0	1
1154.1661335776598	97.178179661877238	0	1
1154.2375859283495	96.325789538918016	0	1
1249.9669470402218	9.0901763980270491	0	1
1158.2193731274695	8.4229574504118627	0	1
1249.8677899088843	18.179872064478321	0	1
1158.1274941295721	16.845469454945611	0	1
1249.7025338498863	27.268606293201401	0	1
1157.9743678653047	25.267090591280418	0	1
1249.4711876027507	36.355898428889255	0	1
1157.7600024327089	33.687375484208786	0	1
1249.1737634021626	45.44126789249956	0	1
1157.4844091684438	42.10587882919009	0	1
1248.8102769773222	54.524234206670002	0	1
1157.1476026471869	50.522155415900421	0	1
1248.380747551113	63.604317021128161	0	1
1156.7496006808612	58.935760151777359	0	1
1247.8851978390853	72.681036138094782	0	1
1156.2904243176963	67.346248085558628	0	1
1247.3236540482544	81.753911537678832	0	1
1155.7700978411124	75.753174430813203	0	1
1246.6961458757153	90.822463403263242	0	1
1155.1886487684378	84.15609458946372	0	1
1246.0027065070719	99.886212146879956	0	1
1154.5461078494529	92.554564175298978	0	1
1157.5833333333333	0	0	20
1153.1783792660365	100.89003520897663	0	20
1156.9166666666667	0	0	20
1152.5142494673087	100.8319313804782	0	20
[NumSegments] = 225
0	1	1.5432098765432098	0	0	2
2	0	1.5432098765432098	0	0	2
5	4	1.5432098765432098	0	0	2
6	25	1.5432098765432098	0	0	2
9	8	1.5432098765432098	0	0	2
11	10	1.5432098765432098	0	0	2
12	26	1.5432098765432098	0	0	2
15	14	1.5432098765432098	0	0	2
7	27	1.5432098765432098	0	0	2
18	17	1.5432098765432098	0	0	2
20	19	1.5432098765432098	0	0	2
21	20	1.5432098765432098	0	0	2
24	23	1.5432098765432098	0	0	2
16	28	1.5432098765432098	0	0	2
1	6	1.5432098765432098	0	0	2
25	5	1.5432098765432098	0	0	2
25	0	1.5432098765432098	0	0	2
10	7	1.5432098765432098	0	0	2
26	11	1.5432098765432098	0	0	2
26	10	1.5432098765432098	0	0	2
27	15	1.5432098765432098	0	0	2
27	11	1.5432098765432098	0	0	2
19	16	1.5432098765432098	0	0	2
28	24	1.5432098765432098	0	0	2
28	20	1.5432098765432098	0	0	2
29	1	1.5432098765432098	0	0	2
30	29	1.5432098765432098	0	0	2
33	32	1.5432098765432098	0	0	2
6	52	1.5432098765432098	0	0	2
36	34	1.5432098765432098	0	0	2
38	37	1.5432098765432098	0	0	2
39	38	1.5432098765432098	0	0	2
42	41	1.5432098765432098	0	0	2
35	54	1.5432098765432098	0	0	2
45	43	1.5432098765432098	0	0	2
47	46	1.5432098765432098	0	0	2
48	47	1.5432098765432098	0	0	2
51	50	1.5432098765432098	0	0	2
44	55	1.5432098765432098	0	0	2
52	33	1.5432098765432098	0	0	2
52	29	1.5432098765432098	0	0	2
37	35	1.5432098765432098	0	0	2
53	37	1.5432098765432098	0	0	2
54	42	1.5432098765432098	0	0	2
54	53	1.5432098765432098	0	0	2
46	44	1.5432098765432098	0	0	2
55	51	1.5432098765432098	0	0	2
55	47	1.5432098765432098	0	0	2
56	57	-1	4	0	2
59	58	-1	4	0	2
57	60	-1	2	0	2
60	59	-1	2	0	2
61	62	-1	10	0	1
64	63	-1	10	0	1
65	66	1.5432098765432098	0	0	1
67	65	1.5432098765432098	0	0	1
68	74	1.5432098765432098	0	0	1
69	68	1.5432098765432098	0	0	1
70	69	1.5432098765432098	0	0	1
71	73	1.5432098765432098	0	0	1
72	71	1.5432098765432098	0	0	1
66	72	1.5432098765432098	0	0	1
73	70	1.5432098765432098	0	0	1
74	67	1.5432098765432098	0	0	1
73	74	1.5432098765432098	0	0	1
65	75	1.5432098765432098	0	0	1
76	72	1.5432098765432098	0	0	1
77	78	1.5432098765432098	0	0	1
79	77	1.5432098765432098	0	0	1
80	86	1.5432098765432098	0	0	1
81	80	1.5432098765432098	0	0	1
82	81	1.5432098765432098	0	0	1
83	85	1.5432098765432098	0	0	1
84	83	1.5432098765432098	0	0	1
78	84	1.5432098765432098	0	0	1
85	82	1.5432098765432098	0	0	1
86	79	1.5432098765432098	0	0	1
85	86	1.5432098765432098	0	0	1
77	87	1.5432098765432098	0	0	1
88	84	1.5432098765432098	0	0	1
89	90	1.5432098765432098	0	0	1
91	89	1.5432098765432098	0	0	1
92	98	1.5432098765432098	0	0	1
93	92	1.5432098765432098	0	0	1
94	93	1.5432098765432098	0	0	1
95	97	1.5432098765432098	0	0	1
96	95	1.5432098765432098	0	0	1
90	96	1.5432098765432098	0	0	1
97	94	1.5432098765432098	0	0	1
98	91	1.5432098765432098	0	0	1
97	98	1.5432098765432098	0	0	1
89	99	1.5432098765432098	0	0	1
100	96	1.5432098765432098	0	0	1
101	102	1.5432098765432098	0	0	1
103	101	1.5432098765432098	0	0	1
104	110	1.5432098765432098	0	0	1
105	104	1.5432098765432098	0	0	1
106	105	1.5432098765432098	0	0	1
107	109	1.5432098765432098	0	0	1
108	107	1.5432098765432098	0	0	1
102	108	1.5432098765432098	0	0	1
109	106	1.5432098765432098	0	0	1
110	103	1.5432098765432098	0	0	1
109	110	1.5432098765432098	0	0	1
101	111	1.5432098765432098	0	0	1
112	108	1.5432098765432098	0	0	1
113	114	1.5432098765432098	0	0	1
115	113	1.5432098765432098	0	0	1
116	122	1.5432098765432098	0	0	1
117	116	1.5432098765432098	0	0	1
118	117	1.5432098765432098	0	0	1
119	121	1.5432098765432098	0	0	1
120	119	1.5432098765432098	0	0	1
114	120	1.5432098765432098	0	0	1
121	118	1.5432098765432098	0	0	1
122	115	1.5432098765432098	0	0	1
121	122	1.5432098765432098	0	0	1
113	123	1.5432098765432098	0	0	1
124	120	1.5432098765432098	0	0	1
125	126	1.5432098765432098	0	0	1
127	125	1.5432098765432098	0	0	1
128	134	1.5432098765432098	0	0	1