[Format]      =  4.0
[Frequency]   =  0
[Precision]   =  1e-008
[MinAngle]    =  15
[DoSmartMesh] =  1
[Depth]       =  1500
[LengthUnits] =  millimeters
[ProblemType] =  planar
[Coordinates] =  cartesian
[ACSolver]    =  0
[PrevType]    =  0
[PrevSoln]    =  ""
[Comment]     =  "Add comments here."
[PointProps]   = 0
[BdryProps]   = 11
  <BeginBdry>
    <BdryName> = "A=0"
    <BdryType> = 0
    <A_0> = 0
    <A_1> = 0
    <A_2> = 0
    <Phi> = 0
    <c0> = 0
    <c0i> = 0
    <c1> = 0
    <c1i> = 0
    <Mu_ssd> = 0
    <Sigma_ssd> = 0
    <innerangle> = 0
    <outerangle> = 0
  <EndBdry>
  <BeginBdry>
    <BdryName> = "APr1"
    <BdryType> = 5
    <A_0> = 0
    <A_1> = 0
    <A_2> = 0
    <Phi> = 0
    <c0> = 0
    <c0i> = 0
    <c1> = 0
    <c1i> = 0
    <Mu_ssd> = 0
    <Sigma_ssd> = 0
    <innerangle> = 0
    <outerangle> = 0
  <EndBdry>
  <BeginBdry>
    <BdryName> = "APr2"
    <BdryType> = 5
    <A_0> = 0
    <A_1> = 0
    <A_2> = 0
    <Phi> = 0
    <c0> = 0
    <c0i> = 0
    <c1> = 0
    <c1i> = 0
    <Mu_ssd> = 0
    <Sigma_ssd> = 0
    <innerangle> = 0
    <outerangle> = 0
  <EndBdry>
  <BeginBdry>
    <BdryName> = "APr3"
    <BdryType> = 5
    <A_0> = 0
    <A_1> = 0
    <A_2> = 0
    <Phi> = 0
    <c0> = 0
    <c0i> = 0
    <c1> = 0
    <c1i> = 0
    <Mu_ssd> = 0
    <Sigma_ssd> = 0
    <innerangle> = 0
    <outerangle> = 0
  <EndBdry>
  <BeginBdry>
    <BdryName> = "APg1"
    <BdryType> = 5
    <A_0> = 0
    <A_1> = 0
    <A_2> = 0
    <Phi> = 0
    <c0> = 0
    <c0i> = 0
    <c1> = 0
    <c1i> = 0
    <Mu_ssd> = 0
    <Sigma_ssd> = 0
    <innerangle> = 0
    <outerangle> = 0
  <EndBdry>
  <BeginBdry>
    <BdryName> = "APg2"
    <BdryType> = 5
    <A_0> = 0
    <A_1> = 0
    <A_2> = 0
    <Phi> = 0
    <c0> = 0
    <c0i> = 0
    <c1> = 0
    <c1i> = 0
    <Mu_ssd> = 0
    <Sigma_ssd> = 0
    <innerangle> = 0
    <outerangle> = 0
  <EndBdry>
  <BeginBdry>
    <BdryName> = "APg3"
    <BdryType> = 5
    <A_0> = 0
    <A_1> = 0
    <A_2> = 0
    <Phi> = 0
    <c0> = 0
    <c0i> = 0
    <c1> = 0
    <c1i> = 0
    <Mu_ssd> = 0
    <Sigma_ssd> = 0
    <innerangle> = 0
    <outerangle> = 0
  <EndBdry>
  <BeginBdry>
    <BdryName> = "APs1"
    <BdryType> = 5
    <A_0> = 0
    <A_1> = 0
    <A_2> = 0
    <Phi> = 0
    <c0> = 0
    <c0i> = 0
    <c1> = 0
    <c1i> = 0
    <Mu_ssd> = 0
    <Sigma_ssd> = 0
    <innerangle> = 0
    <outerangle> = 0
  <EndBdry>
  <BeginBdry>
    <BdryName> = "APs2"
    <BdryType> = 5
    <A_0> = 0
    <A_1> = 0
    <A_2> = 0
    <Phi> = 0
    <c0> = 0
    <c0i> = 0
    <c1> = 0
    <c1i> = 0
    <Mu_ssd> = 0
    <Sigma_ssd> = 0
    <innerangle> = 0
    <outerangle> = 0
  <EndBdry>
  <BeginBdry>
    <BdryName> = "APs3"
    <BdryType> = 5
    <A_0> = 0
    <A_1> = 0
    <A_2> = 0
    <Phi> = 0
    <c0> = 0
    <c0i> = 0
    <c1> = 0
    <c1i> = 0
    <Mu_ssd> = 0
    <Sigma_ssd> = 0
    <innerangle> = 0
    <outerangle> = 0
  <EndBdry>
  <BeginBdry>
    <BdryName> = "AGap"
    <BdryType> = 7
    <A_0> = 0
    <A_1> = 0
    <A_2> = 0
    <Phi> = 0
    <c0> = 0
    <c0i> = 0
    <c1> = 0
    <c1i> = 0
    <Mu_ssd> = 0
    <Sigma_ssd> = 0
    <innerangle> = 0
    <outerangle> = 0
  <EndBdry>
[BlockProps]  = 13
  <BeginBlock>
    <BlockName> = "M270-35A"
    <Mu_x> = 1
    <Mu_y> = 1
    <H_c> = 0
    <H_cAngle> = 0
    <J_re> = 0
    <J_im> = 0
    <Sigma> = 0
    <d_lam> = 0
    <Phi_h> = 0
    <Phi_hx> = 0
    <Phi_hy> = 0
    <LamType> = 0
    <LamFill> = 1
    <NStrands> = 0
    <WireD> = 0
    <BHPoints> = 200
      0	0
      0.0045422769999999999	3.2767874890000002
      0.0090353559999999996	6.114592773
      0.013222249	8.4602422570000009
      0.017196487	10.462328400000001
      0.020991169	12.199266809999999
      0.024640190999999999	13.72982376
      0.028168996000000002	15.09561901
      0.031597466999999997	16.327217480000002
      0.034941272000000002	17.447599879999999
      0.038212956999999999	18.47443998
      0.041422729999999998	19.421601849999998
      0.044579012000000001	20.300151339999999
      0.047688851999999997	21.119056130000001
      0.050758219	21.885681389999998
      0.053792226999999998	22.60614816
      0.056795300999999999	23.285597330000002
      0.059771310000000001	23.928387470000001
      0.062723663999999998	24.538245379999999
      0.065655396000000005	25.11838217
      0.068569221	25.67158405
      0.071467592999999996	26.200284
      0.074352739000000001	26.70661905
      0.077226698999999996	27.19247648
      0.080091349000000006	27.65953137
      0.082948429000000004	28.109277410000001
      0.085799557999999998	28.54305239
      0.088646256000000007	28.96205934
      0.091489953999999998	29.36738437
      0.094332005999999996	29.760011540000001
      0.097173704999999999	30.140835630000002
      0.100016285	30.510672870000001
      0.102860934	30.870270300000001
      0.105708802	31.220313650000001
      0.108561001	31.561434299999998
      0.11141862	31.894215259999999
      0.114282722	32.21919639
      0.117154355	32.536878999999999
      0.120034552	32.847729870000002
      0.12292433699999999	33.152184810000001
      0.12582473199999999	33.45065185
      0.12873675200000001	33.743513989999997
      0.13166142	34.031131799999997
      0.13459976100000001	34.313845620000002
      0.137552811	34.591977620000002
      0.14052161499999999	34.865833639999998
      0.14350723800000001	35.135704879999999
      0.14651076099999999	35.401869419999997
      0.14953328699999999	35.664593680000003
      0.15257594699999999	35.924133650000002
      0.155639899	36.180736189999998
      0.158726334	36.434640119999997
      0.161836481	36.686077320000003
      0.16497160599999999	36.93527375
      0.16813302299999999	37.182450420000002
      0.17132209400000001	37.427824389999998
      0.17454023399999999	37.671609650000001
      0.17778891699999999	37.914018050000003
      0.18106968000000001	38.155260249999998
      0.18438413100000001	38.395546590000002
      0.18773395400000001	38.635088090000004
      0.191120915	38.87409736
      0.19454686800000001	39.112789630000002
      0.19801376800000001	39.351383830000003
      0.20152367299999999	39.590103640000002
      0.20507876	39.829178749999997
      0.208681327	40.068846100000002
      0.21233381500000001	40.309351300000003
      0.216038808	40.550950149999998
      0.21979905799999999	40.793910310000001
      0.22361749	41.038513199999997
      0.227497227	41.285056060000002
      0.2314416	41.53385428
      0.23545417299999999	41.785244059999997
      0.23953876299999999	42.039585369999998
      0.24369946200000001	42.297265359999997
      0.247940667	42.558702250000003
      0.25226710400000002	42.824349750000003
      0.25668386300000001	43.0947022
      0.26119642799999998	43.370300520000001
      0.26581071499999998	43.651739030000002
      0.27054201700000002	43.94020278
      0.275438138	44.23873004
      0.28051031599999998	44.548036490000001
      0.28576849199999999	44.868763260000001
      0.29122336399999998	45.201605100000002
      0.296886504	45.547319020000003
      0.30277045699999999	45.906731970000003
      0.30888884599999999	46.280749559999997
      0.31525650100000002	46.670366299999998
      0.321889598	47.076677459999999
      0.328805825	47.50089294
      0.33602457000000002	47.944353649999996
      0.34356714500000002	48.408550759999997
      0.351457032	48.895148689999999
      0.35972019	49.406012390000001
      0.36838539799999998	49.943240269999997
      0.37748466600000002	50.509203810000002
      0.38705371900000002	51.106595769999998
      0.39713256899999999	51.738489119999997
      0.40776619800000002	52.408409570000003
      0.41900536300000002	53.120425429999997
      0.43090757000000002	53.879259759999997
      0.44353822799999998	54.690431349999997
      0.45697202599999998	55.560433060000001
      0.47129457299999999	56.49695913
      0.486604327	57.509196449999997
      0.503014823	58.60819978
      0.520657166	59.807376320000003
      0.53968265500000001	61.123111049999999
      0.56026517099999995	62.575567960000001
      0.58260257699999995	64.189698669999999
      0.60691558199999995	65.996464399999994
      0.63344113800000001	68.034201780000004
      0.662415215	70.349880479999996
      0.69403682899999997	72.999622560000006
      0.72840307800000004	76.047204840000006
      0.76540934699999996	79.558509650000005
      0.80463064699999998	83.589963030000007
      0.84524547999999999	88.171938179999998
      0.88609953900000005	93.294734669999997
      0.92594964300000004	98.90894376
      0.963771241	104.9435902
      0.99893980100000002	111.3300564
      1.0312218310000001	118.0174305
      1.0606584889999999	124.9760964
      1.0874410889999999	132.19454709999999
      1.1118223309999999	139.6744898
      1.1340651580000001	147.42664859999999
      1.1544176930000001	155.46782519999999
      1.173103241	163.8190534
      1.1903180360000001	172.50453999999999
      1.2062325739999999	181.55112829999999
      1.220994358	190.98810510000001
      1.234730984	200.84723579999999
      1.2475531	211.16296399999999
      1.2595570490000001	221.97273730000001
      1.270827143	233.31744900000001
      1.281437594	245.2419931
      1.291454146	257.79594609999998
      1.3009354369999999	271.03439809999998
      1.309934159	285.01896390000002
      1.318498043	299.81902289999999
      1.326670706	315.51324579999999
      1.3344924010000001	332.19149570000002
      1.3420006879999999	349.95721329999998
      1.3492310569999999	368.93044570000001
      1.356217531	389.25173360000002
      1.362993272	411.08716509999999
      1.3695912379999999	434.63503709999998
      1.3760449050000001	460.1347695
      1.382389146	487.87903890000001
      1.3886613240000001	518.23060969999995
      1.394902732	551.64618570000005
      1.401160583	588.71104339999999
      1.4074908660000001	630.19074279999995
      1.4139626249999999	677.11087850000001
      1.420664664	730.8848299
      1.4277165590000001	793.52783980000004
      1.435287779	868.03580320000003
      1.4436331710000001	959.10175079999999
      1.453164339	1074.5891859999999
      1.464608755	1228.9034079999999
      1.479413587	1451.8548430000001
      1.5007295060000001	1812.597843
      1.531321148	2396.2922779999999
      1.5749716949999999	3340.7297119999998
      1.6351726849999999	4868.8615820000005
      1.6746062129999999	6056.7860730000002
      1.7053540309999999	7126.7301200000002
      1.7307497590000001	8135.9466300000004
      1.752580204	9119.3875740000003
      1.771845345	10098.25848
      1.789165838	11087.22133
      1.804957089	12097.58993
      1.819514077	13138.977849999999
      1.8330565510000001	14220.25051
      1.845754994	15350.15127
      1.8577465099999999	16537.778849999999
      1.869145125	17793.012470000001
      1.8800488470000001	19126.948680000001
      1.8905448170000001	20552.403480000001
      1.9007133519999999	22084.53774
      1.9106314310000001	23741.68173
      1.920376064	25546.46932
      1.930027954	27527.455720000002
      1.9396760099999999	29721.505959999999
      1.9494234969999999	32177.45292
      1.959397184	34961.935420000002
      1.969762051	38169.180130000001
      1.980746793	41938.394229999998
      1.9926918389999999	46487.096960000003
      2.0061495709999999	52181.595710000001
      2.022124024	59707.652569999998
      2.042772002	70576.241299999994
      2.0725625070000002	88161.987269999998
      2.1158769670000002	116616.322
      2.1803765140000002	162656.4026
      2.2792825830000001	237150.818
      2.3747656959999999	310949.48619999998
  <EndBlock>
  <BeginBlock>
    <BlockName> = "ShaftAir"
    <Mu_x> = 1
    <Mu_y> = 1
    <H_c> = 0
    <H_cAngle> = 0
    <J_re> = 0
    <J_im> = 0
    <Sigma> = 0
    <d_lam> = 0
    <Phi_h> = 0
    <Phi_hx> = 0
    <Phi_hy> = 0
    <LamType> = 0
    <LamFill> = 1
    <NStrands> = 0
    <WireD> = 0
    <BHPoints> = 3
      -100	-7.9577471545947675e-011
      0	0
      100	7.9577471545947675e-011
  <EndBlock>
  <BeginBlock>
    <BlockName> = "Copper"
    <Mu_x> = 1
    <Mu_y> = 1
    <H_c> = 0
    <H_cAngle> = 0
    <J_re> = 0
    <J_im> = 0
    <Sigma> = 58
    <d_lam> = 0
    <Phi_h> = 0
    <Phi_hx> = 0
    <Phi_hy> = 0
    <LamType> = 0
    <LamFill> = 1
    <NStrands> = 0
    <WireD> = 0
    <BHPoints> = 0
  <EndBlock>
  <BeginBlock>
    <BlockName> = "Aluminium"
    <Mu_x> = 1
    <Mu_y> = 1
    <H_c> = 0
    <H_cAngle> = 0
    <J_re> = 0
    <J_im> = 0
    <Sigma> = 29
    <d_lam> = 0
    <Phi_h> = 0
    <Phi_hx> = 0
    <Phi_hy> = 0
    <LamType> = 0
    <LamFill> = 1
    <NStrands> = 0
    <WireD> = 0
    <BHPoints> = 0
  <EndBlock>
  <BeginBlock>
    <BlockName> = "BMN-52UH"
    <Mu_x> = 1.05
    <Mu_y> = 1.05
    <H_c> = 1098926.9880154678
    <H_cAngle> = 0
    <J_re> = 0
    <J_im> = 0
    <Sigma> = 0.66600000000000004
    <d_lam> = 0
    <Phi_h> = 0
    <Phi_hx> = 0
    <Phi_hy> = 0
    <LamType> = 0
    <LamFill> = 1
    <NStrands> = 0
    <WireD> = 0
    <BHPoints> = 0
  <EndBlock>
  <BeginBlock>
    <BlockName> = "DW235"
    <Mu_x> = 1
    <Mu_y> = 1
    <H_c> = 0
    <H_cAngle> = 0
    <J_re> = 0
    <J_im> = 0
    <Sigma> = 0
    <d_lam> = 0
    <Phi_h> = 0
    <Phi_hx> = 0
    <Phi_hy> = 0
    <LamType> = 0
    <LamFill> = 1
    <NStrands> = 0
    <WireD> = 0
    <BHPoints> = 0
  <EndBlock>
  <BeginBlock>
    <BlockName> = "Air"
    <Mu_x> = 1
    <Mu_y> = 1
    <H_c> = 0
    <H_cAngle> = 0
    <J_re> = 0
    <J_im> = 0
    <Sigma> = 0
    <d_lam> = 0
    <Phi_h> = 0
    <Phi_hx> = 0
    <Phi_hy> = 0
    <LamType> = 0
    <LamFill> = 1
    <NStrands> = 0
    <WireD> = 0
    <BHPoints> = 0
  <EndBlock>
  <BeginBlock>
    <BlockName> = "BMN-52UH_1"
    <Mu_x> = 1.05
    <Mu_y> = 1.05
    <H_c> = 1098926.9880154678
    <H_cAngle> = 0
    <J_re> = 0
    <J_im> = 0
    <Sigma> = 0.66600000000000004
    <d_lam> = 0
    <Phi_h> = 0
    <Phi_hx> = 0
    <Phi_hy> = 0
    <LamType> = 0
    <LamFill> = 1
    <NStrands> = 0
    <WireD> = 0
    <BHPoints> = 0
  <EndBlock>
  <BeginBlock>
    <BlockName> = "BMN-52UH_2"
    <Mu_x> = 1.05
    <Mu_y> = 1.05
    <H_c> = 1098926.9880154678
    <H_cAngle> = 0
    <J_re> = 0
    <J_im> = 0
    <Sigma> = 0.66600000000000004
    <d_lam> = 0
    <Phi_h> = 0
    <Phi_hx> = 0
    <Phi_hy> = 0
    <LamType> = 0
    <LamFill> = 1
    <NStrands> = 0
    <WireD> = 0
    <BHPoints> = 0
  <EndBlock>
  <BeginBlock>
    <BlockName> = "BMN-52UH_3"
    <Mu_x> = 1.05
    <Mu_y> = 1.05
    <H_c> = 1098926.9880154678
    <H_cAngle> = 0
    <J_re> = 0
    <J_im> = 0
    <Sigma> = 0.66600000000000004
    <d_lam> = 0
    <Phi_h> = 0
    <Phi_hx> = 0
    <Phi_hy> = 0
    <LamType> = 0
    <LamFill> = 1
    <NStrands> = 0
    <WireD> = 0
    <BHPoints> = 0
  <EndBlock>
  <BeginBlock>
    <BlockName> = "BMN-52UH_4"
    <Mu_x> = 1.05
    <Mu_y> = 1.05
    <H_c> = 1098926.9880154678
    <H_cAngle> = 0
    <J_re> = 0
    <J_im> = 0
    <Sigma> = 0.66600000000000004
    <d_lam> = 0
    <Phi_h> = 0
    <Phi_hx> = 0
    <Phi_hy> = 0
    <LamType> = 0
    <LamFill> = 1
    <NStrands> = 0
    <WireD> = 0
    <BHPoints> = 0
  <EndBlock>
  <BeginBlock>
    <BlockName> = "BMN-52UH_5"
    <Mu_x> = 1.05
    <Mu_y> = 1.05
    <H_c> = 1098926.9880154678
    <H_cAngle> = 0
    <J_re> = 0
    <J_im> = 0
    <Sigma> = 0.66600000000000004
    <d_lam> = 0
    <Phi_h> = 0
    <Phi_hx> = 0
    <Phi_hy> = 0
    <LamType> = 0
    <LamFill> = 1
    <NStrands> = 0
    <WireD> = 0
    <BHPoints> = 0
  <EndBlock>
  <BeginBlock>
    <BlockName> = "BMN-52UH_6"
    <Mu_x> = 1.05
    <Mu_y> = 1.05
    <H_c> = 1098926.9880154678
    <H_cAngle> = 0
    <J_re> = 0
    <J_im> = 0
    <Sigma> = 0.66600000000000004
    <d_lam> = 0
    <Phi_h> = 0
    <Phi_hx> = 0
    <Phi_hy> = 0
    <LamType> = 0
    <LamFill> = 1
    <NStrands> = 0
    <WireD> = 0
    <BHPoints> = 0
  <EndBlock>
[CircuitProps]  = 6
  <BeginCircuit>
    <CircuitName> = "fase1"
    <TotalAmps_re> = 0
    <TotalAmps_im> = 0
    <CircuitType> = 1
  <EndCircuit>
  <BeginCircuit>
    <CircuitName> = "fase2"
    <TotalAmps_re> = 0
    <TotalAmps_im> = 0
    <CircuitType> = 1
  <EndCircuit>
  <BeginCircuit>
    <CircuitName> = "fase3"
    <TotalAmps_re> = 0
    <TotalAmps_im> = 0
    <CircuitType> = 1
  <EndCircuit>
  <BeginCircuit>
    <CircuitName> = "fase1n"
    <TotalAmps_re> = 0
    <TotalAmps_im> = 0
    <CircuitType> = 1
  <EndCircuit>
  <BeginCircuit>
    <CircuitName> = "fase2n"
    <TotalAmps_re> = 0
    <TotalAmps_im> = 0
    <CircuitType> = 1
  <EndCircuit>
  <BeginCircuit>
    <CircuitName> = "fase3n"
    <TotalAmps_re> = 0
    <TotalAmps_im> = 0
    <CircuitType> = 1
  <EndCircuit>
[NumPoints] = 237
986.20314113086363	64.100030031515516	0	2
986.85334725414316	51.71879240762555	0	2
994.78765173660429	65.003615828054791	0	2
996.72985711862907	67.309671877652875	0	2
994.41773050640779	69.254479780241908	0	2
981.72941940460828	67.920884545074287	0	2
982.59024400747512	51.49537263361335	0	2
968.52647632088588	52.294955160326758	0	2
969.57744181188332	51.348661581815122	0	2
976.41089661047226	51.706787772640205	0	2
977.35719018898385	52.757753263637731	0	2
976.31613198667173	72.610915581114241	0	2
988.44808969519556	73.88662234037389	0	2
995.58719566468437	82.505368483084311	0	2
994.49158888032491	83.412742837457017	0	2
967.04684064571916	80.528183562199757	0	2
950.0441057420785	52.274505593423591	0	2
951.09507123307594	51.328212014911969	0	2
962.49613665309482	51.925716535035832	0	2
963.44243023160641	52.976682026033345	0	2
961.76124013093863	85.055797194262027	0	2
986.03505733136069	87.607078188091236	0	2
994.21693021285284	97.640645625328816	0	2
989.52736780857435	101.46474943509227	0	2
947.69657508728164	97.068155955563782	0	2
986.20447043072716	64.100099768724874	0	2
981.94136718405912	63.876679994712674	0	2
976.31673351495817	72.61094711435895	0	2
967.4860196468602	72.148149011047977	0	2
948.36291564141061	84.35362076165228	0	2
987.50355337742269	39.337554783735577	0	2
996.13548757059584	39.338864941214723	0	2
998.30544323618824	37.245697805218207	0	2
996.20927047687894	35.069860722152427	0	2
983.45106861034196	35.069860722152413	0	2
969.63340204971837	50.281072306563772	0	2
968.68710847120667	49.230106815566252	0	2
976.4668568483072	50.639198497388854	0	2
977.51782233930476	49.692904918877225	0	2
978.55888054161676	29.839742601400719	0	2
990.757725783551	29.840326009853619	0	2
998.75742421569419	22.013804169927276	0	2
997.76266572680572	20.996878413693256	0	2
970.1667441463735	20.996878413693246	0	2
951.25014218779927	48.369476050199175	0	2
950.30384860928768	47.318510559201655	0	2
962.65120760781815	48.966980570323031	0	2
963.70217309881571	48.020686991811409	0	2
965.38336319948348	15.94157182358272	0	2
989.79088737111931	15.941571823582713	0	2
998.97673248218996	6.8182079175494721	0	2
994.71258768604957	2.5248601970614715	0	2
952.65137926408443	2.5248601970614715	0	2
987.50222407755916	39.337485046526226	0	2
983.23912083089112	39.114065272514026	0	2
978.55827901333043	29.839711068156003	0	2
969.72756514523246	29.37691296484503	0	2
951.98503870995546	15.239395390972973	0	2
1000	0	0	20
386.11000000000001	0	0	2
994.52189536827325	104.52846326765345	0	20
383.99484902064404	40.359484952273675	0	2
0	0	0	2
1250	0	0	1
1002	0	0	20
1243.1523692103417	130.66057908456682	0	1
996.51093915900981	104.73752019418876	0	20
1013.0954996288194	5.6228159249741969	0	1
1013.1007456940406	4.4205139701774616	0	1
1013.3690394624841	6.6617929914937939	0	1
1233.3097844674801	7.6214547309665059	0	1
1233.3215928889058	5.3814147845207705	0	1
1233.3293158884294	3.1413401364294868	0	1
1013.3885878476208	2.1816615649929125	0	1
1013.1059917592618	3.2182120153807263	0	1
1123.2199263327634	2.6608942259108113	0	1
1123.2003779476267	7.1410256524116935	0	1
1001.984494287478	5.5743347106992349	0	1
1001.9949864179204	3.1697308011057643	0	1
1013.0078563537216	14.463415666126814	0	1
1013.023594149877	13.26120527127884	0	1
1013.2723191015746	15.504740226652018	0	1
1233.1963149147011	18.383686143971165	0	1
1233.2276706746088	16.143834537991474	0	1
1233.2549414709995	13.903912580108315	0	1
1013.3309627682995	11.024949979504797	0	1
1013.0393319460325	12.058994876430862	0	1
1123.1539371717872	12.462611466835941	0	1
1123.0952935050623	16.942401713983159	0	1
1001.897697158455	14.3179757153341	0	1
1001.9291727507657	11.913554925638147	0	1
1012.8430686083431	23.302913962179069	0	1
1012.8692969369386	22.100886680255964	0	1
1013.0984341305223	24.346506715812936	0	1
1232.9889326880273	29.144517568100625	0	1
1233.0398333985545	26.905024875958716	0	1
1233.0866499150361	24.665426187012983	0	1
1013.196168612893	19.867398801390912	0	1
1012.895525265534	20.89885939833286	0	1
1123.0024154900279	22.263379631646906	0	1
1122.9046810076572	26.742487546068929	0	1
1001.7346016407886	23.060526350683944	0	1
1001.7870582979796	20.656471786837738	0	1
1012.6011489419085	32.140637651112201	0	1
1012.6378658055554	30.938885021145328	0	1
1012.8473977913408	33.18641912422612	0	1
1232.6876535804188	39.903129524379693	0	1
1232.7580953652791	37.664166292114615	0	1
1232.8244540365927	35.425061426217432	0	1
1012.984215646498	28.708334643938542	0	1
1012.6745826692022	29.737132391178452	0	1
1122.7653728264484	32.062452353902749	0	1
1122.6285549712911	36.54053683419032	0	1
1001.4952201548341	31.801320837669728	0	1
1001.5686538821277	29.397815577735983	0	1
1012.2821157775375	40.975913706050662	0	1
1012.3293183801044	39.774527246155557	0	1
1012.5192292014193	42.02380425833654	0	1
1232.2925005354459	50.658702702854221	0	1
1232.382478030225	48.420439436184616	0	1
1232.4683738029003	46.181998909840566	0	1
1012.6951200101538	37.547084235654197	0	1
1012.3765209826711	38.573140786260467	0	1
1122.4428272327655	41.859083396277001	0	1
1122.2669364240307	46.335803418959344	0	1
1001.1795709304184	40.539693530949904	0	1
1001.2739761355521	38.136920611159709	0	1
1011.8859934108403	49.808069286515703	0	1
1011.9436781576662	48.607140486922667	0	1
1012.1139533520666	50.85798911705092	0	1
1231.8035036455428	61.410418024984793	0	1
1231.913009998106	59.173025176324195	0	1
1232.0184363308474	56.935419455445839	0	1
1012.3289037196124	46.38297447153586	0	1
1012.0013629044921	47.406211687329623	0	1
1122.0348032720744	51.652526707386599	0	1
1121.8198529045287	56.127541352901659	0	1
1000.787678005452	49.274978969611894	0	1
1000.9030474991039	46.873121370425807	0	1
1011.4128120080688	58.636431789664805	0	1
1011.480974506237	57.436052105751493	0	1
1011.6316011066075	59.688300942989322	0	1
1231.2207001497159	72.157456706022657	0	1
1231.3497270207299	69.921104661498916	0	1
1231.4746758849149	67.684504148425148	0	1
1011.8855946636617	55.215332464332533	0	1
1011.5491370044052	56.235672421838174	0	1
1121.5413320169798	61.442036478606553	0	1
1121.2873384599256	65.915004957263335	0	1
1000.3195712240985	58.006511927849502	0	1
1000.4558962204347	55.605752560022871	0	1
1010.8626076038191	67.460328901512938	0	1
1010.9412426624915	66.260589746839742	0	1
1011.0722091980333	68.514067273718254	0	1
1230.5441344307078	82.899000317363402	0	1
1230.6926719942774	80.663859383843118	0	1
1230.8371338745651	78.428434404362335	0	1
1011.3652266020032	64.043485595787189	0	1
1011.0198777211638	65.060850592166545	0	1
1120.9624510472286	71.226867200866138	0	1
1120.6694336432586	75.697448878797204	0	1
999.77528623450155	66.733627465622462	0	1
999.93255635184607	64.334149156276069	0	1
1010.2354220982868	76.279088648131946	0	1
1010.3245237290992	75.080081387480476	0	1
1010.4358202262034	77.334615992961318	0	1
1229.7738580116174	93.634230848873457	0	1
1229.9418949560322	91.400471240992388	0	1
1230.1058588510914	89.166392031371601	0	1
1010.7678391626793	72.866761567859285	0	1
1010.4136253599113	73.881074126829006	0	1
1120.2982044468472	81.006273721422332	0	1
1119.9661855103714	85.47412814652435	0	1
999.15486448607032	75.45566097929418	0	1
999.33306774769494	73.057646457991225	0	1
1009.5313032540762	85.09203944682389	0	1
1009.6308646715943	83.893855389239192	0	1
1009.7224826546019	86.149275381783355	0	1
1228.9099295519768	104.3623307711847	0	1
1229.0974530805724	102.13012259838534	0	1
1229.280906503918	99.897559292405944	0	1
1010.0934778390563	81.684488453922867	0	1
1009.7304260891124	82.695671331654481	0	1
1119.5486428007866	90.779511300606117	0	1
1119.1776476163323	95.24429822846659	0	1
998.45835322632342	84.171948252243851	0	1
998.65747606135949	81.775580137074428	0	1
1008.7503046925633	93.898510157264738	0	1
1008.8603183147998	92.701240549101726	0	1
1008.9322508066467	94.957374169744583	0	1
1227.9524148432822	115.08248309795252	0	1
1228.159410675416	112.85199635152959	0	1
1228.3623396563596	110.62111896753105	0	1
1009.3421939863599	90.495994749936301	0	1
1008.9703319370362	91.503970940938743	0	1
1118.7138231910676	100.54583566853717	0	1
1118.3038800113545	105.00721508834546	0	1
997.68580549728949	92.881825505449157	0	1
997.90583274176231	90.487286289123162	0	1
1007.8924858898127	102.69783013261424	0	1
1008.0129433388042	101.50156615058903	0	1
1008.0651848615527	103.75824158602038	0	1
1226.901386803986	125.79387144807249	0	1
1227.1278391761246	123.56527598822741	0	1
1227.3502282608381	121.33625441615969	0	1
1008.5140448177644	99.300609425580063	0	1
1008.1334007877957	100.30530216856383	0	1
1117.7938091924361	110.30450308180305	0	1
1117.3449492362245	114.76213524224337	0	1
996.83728013146924	101.58462944803563	0	1
997.07819502945244	99.192101483985212	0	1
1249.9524038302141	10.908169372967418	0	1
1001.9618469102996	8.743988569370682	0	1
1249.8096189454891	21.815508046604389	0	1
1001.8473905467041	17.487311250158079	0	1
1249.5716562194466	32.721185384841441	0	1
1001.6566396255083	26.229302204488899	0	1
1249.2385337738697	43.624370878126214	0	1
1001.3896086731339	34.96929569590597	0	1
1248.8102769773222	54.524234206670002	0	1
1001.0463180250215	43.706626140066675	0	1
1248.2869184432172	65.419945303679796	0	1
1000.6267938240829	52.440628155429721	0	1
1247.6684980273337	76.310674418571097	0	1
1000.1310680187106	61.170636613926597	0	1
1246.9550628247803	87.195592180156652	0	1
999.55917836034382	69.895986691613572	0	1
1246.14666716641	98.073869659806178	0	1
998.91116840059419	78.616013919300627	0	1
1245.2433726146819	108.94467843457272	0	1
998.18708748792903	87.33005423315349	0	1
1244.2452479589736	119.80719065027999	0	1
997.38699076391322	96.037444025264449	0	1
1001.3333333333334	0	0	20
995.84792456209766	104.66783455201033	0	20
1000.6666666666666	0	0	20
995.1849099651854	104.59814890983189	0	20
[NumSegments] = 228
0	1	1.8518518518518516	0	0	2
2	25	1.8518518518518516	0	0	2
5	4	1.8518518518518516	0	0	2
6	26	1.8518518518518516	0	0	2
9	8	1.8518518518518516	0	0	2
11	10	1.8518518518518516	0	0	2
12	27	1.8518518518518516	0	0	2
15	14	1.8518518518518516	0	0	2
7	28	1.8518518518518516	0	0	2
18	17	1.8518518518518516	0	0	2
20	19	1.8518518518518516	0	0	2
21	20	1.8518518518518516	0	0	2
24	23	1.8518518518518516	0	0	2
16	29	1.8518518518518516	0	0	2
1	6	1.8518518518518516	0	0	2
25	0	1.8518518518518516	0	0	2
25	1	1.8518518518518516	0	0	2
26	5	1.8518518518518516	0	0	2
26	0	1.8518518518518516	0	0	2
10	7	1.8518518518518516	0	0	2
27	11	1.8518518518518516	0	0	2
27	10	1.8518518518518516	0	0	2
28	15	1.8518518518518516	0	0	2
28	11	1.8518518518518516	0	0	2
19	16	1.8518518518518516	0	0	2
29	24	1.8518518518518516	0	0	2
29	20	1.8518518518518516	0	0	2
30	1	1.8518518518518516	0	0	2
31	30	1.8518518518518516	0	0	2
34	33	1.8518518518518516	0	0	2
6	54	1.8518518518518516	0	0	2
37	35	1.8518518518518516	0	0	2
39	38	1.8518518518518516	0	0	2
40	39	1.8518518518518516	0	0	2
43	42	1.8518518518518516	0	0	2
36	56	1.8518518518518516	0	0	2
46	44	1.8518518518518516	0	0	2
48	47	1.8518518518518516	0	0	2
49	48	1.8518518518518516	0	0	2
52	51	1.8518518518518516	0	0	2
45	57	1.8518518518518516	0	0	2
53	1	1.8518518518518516	0	0	2
54	34	1.8518518518518516	0	0	2
54	53	1.8518518518518516	0	0	2
38	36	1.8518518518518516	0	0	2
55	38	1.8518518518518516	0	0	2
56	43	1.8518518518518516	0	0	2
56	55	1.8518518518518516	0	0	2
47	45	1.8518518518518516	0	0	2
57	52	1.8518518518518516	0	0	2
57	48	1.8518518518518516	0	0	2
58	59	-1	4	0	2
61	60	-1	4	0	2
59	62	-1	2	0	2
62	61	-1	2	0	2
63	64	-1	10	0	1
66	65	-1	10	0	1
67	68	1.8518518518518516	0	0	1
69	67	1.8518518518518516	0	0	1
70	76	1.8518518518518516	0	0	1
71	70	1.8518518518518516	0	0	1
72	71	1.8518518518518516	0	0	1
73	75	1.8518518518518516	0	0	1
74	73	1.8518518518518516	0	0	1
68	74	1.8518518518518516	0	0	1
75	72	1.8518518518518516	0	0	1
76	69	1.8518518518518516	0	0	1
75	76	1.8518518518518516	0	0	1
67	77	1.8518518518518516	0	0	1
78	74	1.8518518518518516	0	0	1
79	80	1.8518518518518516	0	0	1
81	79	1.8518518518518516	0	0	1
82	88	1.8518518518518516	0	0	1
83	82	1.8518518518518516	0	0	1
84	83	1.8518518518518516	0	0	1
85	87	1.8518518518518516	0	0	1
86	85	1.8518518518518516	0	0	1
80	86	1.8518518518518516	0	0	1
87	84	1.8518518518518516	0	0	1
88	81	1.8518518518518516	0	0	1
87	88	1.8518518518518516	0	0	1
79	89	1.8518518518518516	0	0	1
90	86	1.8518518518518516	0	0	1
91	92	1.8518518518518516	0	0	1
93	91	1.8518518518518516	0	0	1
94	100	1.8518518518518516	0	0	1
95	94	1.8518518518518516	0	0	1
96	95	1.8518518518518516	0	0	1
97	99	1.8518518518518516	0	0	1
98	97	1.8518518518518516	0	0	1
92	98	1.8518518518518516	0	0	1
99	96	1.8518518518518516	0	0	1
100	93	1.8518518518518516	0	0	1
99	100	1.8518518518518516	0	0	1
91	101	1.8518518518518516	0	0	1
102	98	1.8518518518518516	0	0	1
103	104	1.8518518518518516	0	0	1
105	103	1.8518518518518516	0	0	1
106	112	1.8518518518518516	0	0	1
107	106	1.8518518518518516	0	0	1
108	107	1.8518518518518516	0	0	1
109	111	1.8518518518518516	0	0	1
110	109	1.8518518518518516	0	0	1
104	110	1.8518518518518516	0	0	1
111	108	1.8518518518518516	0	0	1
112	105	1.8518518518518516	0	0	1
111	112	1.8518518518518516	0	0	1
103	113	1.8518518518518516	0	0	1
114	110	1.8518518518518516	0	0	1
115	116	1.8518518518518516	0	0	1
117	115	1.8518518518518516	0	0	1
118	124	1.8518518518518516	0	0	1
119	118	1.8518518518518516	0	0	1
120	119	1.8518518518518516	0	0	1
121	123	1.8518518518518516	0	0	1
122	121	1.8518518518518516	0	0	1
116	122	1.8518518518518516	0	0	1
123	120	1.8518518518518516	0	0	1
124	117	1.8518518518518516	0	0	1