[Format]      =  4.0
[Frequency]   =  0
[Precision]   =  1e-008
[MinAngle]    =  15
[DoSmartMesh] =  1
[Depth]       =  1500
[LengthUnits] =  millimeters
[ProblemType] =  planar
[Coordinates] =  cartesian
[ACSolver]    =  0
[PrevType]    =  0
[PrevSoln]    =  ""
[Comment]     =  "Add comments here."
[PointProps]   = 0
[BdryProps]   = 11
  <BeginBdry>
    <BdryName> = "A=0"
    <BdryType> = 0
    <A_0> = 0
    <A_1> = 0
    <A_2> = 0
    <Phi> = 0
    <c0> = 0
    <c0i> = 0
    <c1> = 0
    <c1i> = 0
    <Mu_ssd> = 0
    <Sigma_ssd> = 0
    <innerangle> = 0
    <outerangle> = 0
  <EndBdry>
  <BeginBdry>
    <BdryName> = "APr1"
    <BdryType> = 5
    <A_0> = 0
    <A_1> = 0
    <A_2> = 0
    <Phi> = 0
    <c0> = 0
    <c0i> = 0
    <c1> = 0
    <c1i> = 0
    <Mu_ssd> = 0
    <Sigma_ssd> = 0
    <innerangle> = 0
    <outerangle> = 0
  <EndBdry>
  <BeginBdry>
    <BdryName> = "APr2"
    <BdryType> = 5
    <A_0> = 0
    <A_1> = 0
    <A_2> = 0
    <Phi> = 0
    <c0> = 0
    <c0i> = 0
    <c1> = 0
    <c1i> = 0
    <Mu_ssd> = 0
    <Sigma_ssd> = 0
    <innerangle> = 0
    <outerangle> = 0
  <EndBdry>
  <BeginBdry>
    <BdryName> = "APr3"
    <BdryType> = 5
    <A_0> = 0
    <A_1> = 0
    <A_2> = 0
    <Phi> = 0
    <c0> = 0
    <c0i> = 0
    <c1> = 0
    <c1i> = 0
    <Mu_ssd> = 0
    <Sigma_ssd> = 0
    <innerangle> = 0
    <outerangle> = 0
  <EndBdry>
  <BeginBdry>
    <BdryName> = "APg1"
    <BdryType> = 5
    <A_0> = 0
    <A_1> = 0
    <A_2> = 0
    <Phi> = 0
    <c0> = 0
    <c0i> = 0
    <c1> = 0
    <c1i> = 0
    <Mu_ssd> = 0
    <Sigma_ssd> = 0
    <innerangle> = 0
    <outerangle> = 0
  <EndBdry>
  <BeginBdry>
    <BdryName> = "APg2"
    <BdryType> = 5
    <A_0> = 0
    <A_1> = 0
    <A_2> = 0
    <Phi> = 0
    <c0> = 0
    <c0i> = 0
    <c1> = 0
    <c1i> = 0
    <Mu_ssd> = 0
    <Sigma_ssd> = 0
    <innerangle> = 0
    <outerangle> = 0
  <EndBdry>
  <BeginBdry>
    <BdryName> = "APg3"
    <BdryType> = 5
    <A_0> = 0
    <A_1> = 0
    <A_2> = 0
    <Phi> = 0
    <c0> = 0
    <c0i> = 0
    <c1> = 0
    <c1i> = 0
    <Mu_ssd> = 0
    <Sigma_ssd> = 0
    <innerangle> = 0
    <outerangle> = 0
  <EndBdry>
  <BeginBdry>
    <BdryName> = "APs1"
    <BdryType> = 5
    <A_0> = 0
    <A_1> = 0
    <A_2> = 0
    <Phi> = 0
    <c0> = 0
    <c0i> = 0
    <c1> = 0
    <c1i> = 0
    <Mu_ssd> = 0
    <Sigma_ssd> = 0
    <innerangle> = 0
    <outerangle> = 0
  <EndBdry>
  <BeginBdry>
    <BdryName> = "APs2"
    <BdryType> = 5
    <A_0> = 0
    <A_1> = 0
    <A_2> = 0
    <Phi> = 0
    <c0> = 0
    <c0i> = 0
    <c1> = 0
    <c1i> = 0
    <Mu_ssd> = 0
    <Sigma_ssd> = 0
    <innerangle> = 0
    <outerangle> = 0
  <EndBdry>
  <BeginBdry>
    <BdryName> = "APs3"
    <BdryType> = 5
    <A_0> = 0
    <A_1> = 0
    <A_2> = 0
    <Phi> = 0
    <c0> = 0
    <c0i> = 0
    <c1> = 0
    <c1i> = 0
    <Mu_ssd> = 0
    <Sigma_ssd> = 0
    <innerangle> = 0
    <outerangle> = 0
  <EndBdry>
  <BeginBdry>
    <BdryName> = "AGap"
    <BdryType> = 7
    <A_0> = 0
    <A_1> = 0
    <A_2> = 0
    <Phi> = 0
    <c0> = 0
    <c0i> = 0
    <c1> = 0
    <c1i> = 0
    <Mu_ssd> = 0
    <Sigma_ssd> = 0
    <innerangle> = 0
    <outerangle> = 0
  <EndBdry>
[BlockProps]  = 13
  <BeginBlock>
    <BlockName> = "M270-35A"
    <Mu_x> = 1
    <Mu_y> = 1
    <H_c> = 0
    <H_cAngle> = 0
    <J_re> = 0
    <J_im> = 0
    <Sigma> = 0
    <d_lam> = 0
    <Phi_h> = 0
    <Phi_hx> = 0
    <Phi_hy> = 0
    <LamType> = 0
    <LamFill> = 1
    <NStrands> = 0
    <WireD> = 0
    <BHPoints> = 200
      0	0
      0.0045422769999999999	3.2767874890000002
      0.0090353559999999996	6.114592773
      0.013222249	8.4602422570000009
      0.017196487	10.462328400000001
      0.020991169	12.199266809999999
      0.024640190999999999	13.72982376
      0.028168996000000002	15.09561901
      0.031597466999999997	16.327217480000002
      0.034941272000000002	17.447599879999999
      0.038212956999999999	18.47443998
      0.041422729999999998	19.421601849999998
      0.044579012000000001	20.300151339999999
      0.047688851999999997	21.119056130000001
      0.050758219	21.885681389999998
      0.053792226999999998	22.60614816
      0.056795300999999999	23.285597330000002
      0.059771310000000001	23.928387470000001
      0.062723663999999998	24.538245379999999
      0.065655396000000005	25.11838217
      0.068569221	25.67158405
      0.071467592999999996	26.200284
      0.074352739000000001	26.70661905
      0.077226698999999996	27.19247648
      0.080091349000000006	27.65953137
      0.082948429000000004	28.109277410000001
      0.085799557999999998	28.54305239
      0.088646256000000007	28.96205934
      0.091489953999999998	29.36738437
      0.094332005999999996	29.760011540000001
      0.097173704999999999	30.140835630000002
      0.100016285	30.510672870000001
      0.102860934	30.870270300000001
      0.105708802	31.220313650000001
      0.108561001	31.561434299999998
      0.11141862	31.894215259999999
      0.114282722	32.21919639
      0.117154355	32.536878999999999
      0.120034552	32.847729870000002
      0.12292433699999999	33.152184810000001
      0.12582473199999999	33.45065185
      0.12873675200000001	33.743513989999997
      0.13166142	34.031131799999997
      0.13459976100000001	34.313845620000002
      0.137552811	34.591977620000002
      0.14052161499999999	34.865833639999998
      0.14350723800000001	35.135704879999999
      0.14651076099999999	35.401869419999997
      0.14953328699999999	35.664593680000003
      0.15257594699999999	35.924133650000002
      0.155639899	36.180736189999998
      0.158726334	36.434640119999997
      0.161836481	36.686077320000003
      0.16497160599999999	36.93527375
      0.16813302299999999	37.182450420000002
      0.17132209400000001	37.427824389999998
      0.17454023399999999	37.671609650000001
      0.17778891699999999	37.914018050000003
      0.18106968000000001	38.155260249999998
      0.18438413100000001	38.395546590000002
      0.18773395400000001	38.635088090000004
      0.191120915	38.87409736
      0.19454686800000001	39.112789630000002
      0.19801376800000001	39.351383830000003
      0.20152367299999999	39.590103640000002
      0.20507876	39.829178749999997
      0.208681327	40.068846100000002
      0.21233381500000001	40.309351300000003
      0.216038808	40.550950149999998
      0.21979905799999999	40.793910310000001
      0.22361749	41.038513199999997
      0.227497227	41.285056060000002
      0.2314416	41.53385428
      0.23545417299999999	41.785244059999997
      0.23953876299999999	42.039585369999998
      0.24369946200000001	42.297265359999997
      0.247940667	42.558702250000003
      0.25226710400000002	42.824349750000003
      0.25668386300000001	43.0947022
      0.26119642799999998	43.370300520000001
      0.26581071499999998	43.651739030000002
      0.27054201700000002	43.94020278
      0.275438138	44.23873004
      0.28051031599999998	44.548036490000001
      0.28576849199999999	44.868763260000001
      0.29122336399999998	45.201605100000002
      0.296886504	45.547319020000003
      0.30277045699999999	45.906731970000003
      0.30888884599999999	46.280749559999997
      0.31525650100000002	46.670366299999998
      0.321889598	47.076677459999999
      0.328805825	47.50089294
      0.33602457000000002	47.944353649999996
      0.34356714500000002	48.408550759999997
      0.351457032	48.895148689999999
      0.35972019	49.406012390000001
      0.36838539799999998	49.943240269999997
      0.37748466600000002	50.509203810000002
      0.38705371900000002	51.106595769999998
      0.39713256899999999	51.738489119999997
      0.40776619800000002	52.408409570000003
      0.41900536300000002	53.120425429999997
      0.43090757000000002	53.879259759999997
      0.44353822799999998	54.690431349999997
      0.45697202599999998	55.560433060000001
      0.47129457299999999	56.49695913
      0.486604327	57.509196449999997
      0.503014823	58.60819978
      0.520657166	59.807376320000003
      0.53968265500000001	61.123111049999999
      0.56026517099999995	62.575567960000001
      0.58260257699999995	64.189698669999999
      0.60691558199999995	65.996464399999994
      0.63344113800000001	68.034201780000004
      0.662415215	70.349880479999996
      0.69403682899999997	72.999622560000006
      0.72840307800000004	76.047204840000006
      0.76540934699999996	79.558509650000005
      0.80463064699999998	83.589963030000007
      0.84524547999999999	88.171938179999998
      0.88609953900000005	93.294734669999997
      0.92594964300000004	98.90894376
      0.963771241	104.9435902
      0.99893980100000002	111.3300564
      1.0312218310000001	118.0174305
      1.0606584889999999	124.9760964
      1.0874410889999999	132.19454709999999
      1.1118223309999999	139.6744898
      1.1340651580000001	147.42664859999999
      1.1544176930000001	155.46782519999999
      1.173103241	163.8190534
      1.1903180360000001	172.50453999999999
      1.2062325739999999	181.55112829999999
      1.220994358	190.98810510000001
      1.234730984	200.84723579999999
      1.2475531	211.16296399999999
      1.2595570490000001	221.97273730000001
      1.270827143	233.31744900000001
      1.281437594	245.2419931
      1.291454146	257.79594609999998
      1.3009354369999999	271.03439809999998
      1.309934159	285.01896390000002
      1.318498043	299.81902289999999
      1.326670706	315.51324579999999
      1.3344924010000001	332.19149570000002
      1.3420006879999999	349.95721329999998
      1.3492310569999999	368.93044570000001
      1.356217531	389.25173360000002
      1.362993272	411.08716509999999
      1.3695912379999999	434.63503709999998
      1.3760449050000001	460.1347695
      1.382389146	487.87903890000001
      1.3886613240000001	518.23060969999995
      1.394902732	551.64618570000005
      1.401160583	588.71104339999999
      1.4074908660000001	630.19074279999995
      1.4139626249999999	677.11087850000001
      1.420664664	730.8848299
      1.4277165590000001	793.52783980000004
      1.435287779	868.03580320000003
      1.4436331710000001	959.10175079999999
      1.453164339	1074.5891859999999
      1.464608755	1228.9034079999999
      1.479413587	1451.8548430000001
      1.5007295060000001	1812.597843
      1.531321148	2396.2922779999999
      1.5749716949999999	3340.7297119999998
      1.6351726849999999	4868.8615820000005
      1.6746062129999999	6056.7860730000002
      1.7053540309999999	7126.7301200000002
      1.7307497590000001	8135.9466300000004
      1.752580204	9119.3875740000003
      1.771845345	10098.25848
      1.789165838	11087.22133
      1.804957089	12097.58993
      1.819514077	13138.977849999999
      1.8330565510000001	14220.25051
      1.845754994	15350.15127
      1.8577465099999999	16537.778849999999
      1.869145125	17793.012470000001
      1.8800488470000001	19126.948680000001
      1.8905448170000001	20552.403480000001
      1.9007133519999999	22084.53774
      1.9106314310000001	23741.68173
      1.920376064	25546.46932
      1.930027954	27527.455720000002
      1.9396760099999999	29721.505959999999
      1.9494234969999999	32177.45292
      1.959397184	34961.935420000002
      1.969762051	38169.180130000001
      1.980746793	41938.394229999998
      1.9926918389999999	46487.096960000003
      2.0061495709999999	52181.595710000001
      2.022124024	59707.652569999998
      2.042772002	70576.241299999994
      2.0725625070000002	88161.987269999998
      2.1158769670000002	116616.322
      2.1803765140000002	162656.4026
      2.2792825830000001	237150.818
      2.3747656959999999	310949.48619999998
  <EndBlock>
  <BeginBlock>
    <BlockName> = "ShaftAir"
    <Mu_x> = 1
    <Mu_y> = 1
    <H_c> = 0
    <H_cAngle> = 0
    <J_re> = 0
    <J_im> = 0
    <Sigma> = 0
    <d_lam> = 0
    <Phi_h> = 0
    <Phi_hx> = 0
    <Phi_hy> = 0
    <LamType> = 0
    <LamFill> = 1
    <NStrands> = 0
    <WireD> = 0
    <BHPoints> = 3
      -100	-7.9577471545947675e-011
      0	0
      100	7.9577471545947675e-011
  <EndBlock>
  <BeginBlock>
    <BlockName> = "Copper"
    <Mu_x> = 1
    <Mu_y> = 1
    <H_c> = 0
    <H_cAngle> = 0
    <J_re> = 0
    <J_im> = 0
    <Sigma> = 58
    <d_lam> = 0
    <Phi_h> = 0
    <Phi_hx> = 0
    <Phi_hy> = 0
    <LamType> = 0
    <LamFill> = 1
    <NStrands> = 0
    <WireD> = 0
    <BHPoints> = 0
  <EndBlock>
  <BeginBlock>
    <BlockName> = "Aluminium"
    <Mu_x> = 1
    <Mu_y> = 1
    <H_c> = 0
    <H_cAngle> = 0
    <J_re> = 0
    <J_im> = 0
    <Sigma> = 29
    <d_lam> = 0
    <Phi_h> = 0
    <Phi_hx> = 0
    <Phi_hy> = 0
    <LamType> = 0
    <LamFill> = 1
    <NStrands> = 0
    <WireD> = 0
    <BHPoints> = 0
  <EndBlock>
  <BeginBlock>
    <BlockName> = "BMN-52UH"
    <Mu_x> = 1.05
    <Mu_y> = 1.05
    <H_c> = 1098926.9880154678
    <H_cAngle> = 0
    <J_re> = 0
    <J_im> = 0
    <Sigma> = 0.66600000000000004
    <d_lam> = 0
    <Phi_h> = 0
    <Phi_hx> = 0
    <Phi_hy> = 0
    <LamType> = 0
    <LamFill> = 1
    <NStrands> = 0
    <WireD> = 0
    <BHPoints> = 0
  <EndBlock>
  <BeginBlock>
    <BlockName> = "DW235"
    <Mu_x> = 1
    <Mu_y> = 1
    <H_c> = 0
    <H_cAngle> = 0
    <J_re> = 0
    <J_im> = 0
    <Sigma> = 0
    <d_lam> = 0
    <Phi_h> = 0
    <Phi_hx> = 0
    <Phi_hy> = 0
    <LamType> = 0
    <LamFill> = 1
    <NStrands> = 0
    <WireD> = 0
    <BHPoints> = 0
  <EndBlock>
  <BeginBlock>
    <BlockName> = "Air"
    <Mu_x> = 1
    <Mu_y> = 1
    <H_c> = 0
    <H_cAngle> = 0
    <J_re> = 0
    <J_im> = 0
    <Sigma> = 0
    <d_lam> = 0
    <Phi_h> = 0
    <Phi_hx> = 0
    <Phi_hy> = 0
    <LamType> = 0
    <LamFill> = 1
    <NStrands> = 0
    <WireD> = 0
    <BHPoints> = 0
  <EndBlock>
  <BeginBlock>
    <BlockName> = "BMN-52UH_1"
    <Mu_x> = 1.05
    <Mu_y> = 1.05
    <H_c> = 1098926.9880154678
    <H_cAngle> = 0
    <J_re> = 0
    <J_im> = 0
    <Sigma> = 0.66600000000000004
    <d_lam> = 0
    <Phi_h> = 0
    <Phi_hx> = 0
    <Phi_hy> = 0
    <LamType> = 0
    <LamFill> = 1
    <NStrands> = 0
    <WireD> = 0
    <BHPoints> = 0
  <EndBlock>
  <BeginBlock>
    <BlockName> = "BMN-52UH_2"
    <Mu_x> = 1.05
    <Mu_y> = 1.05
    <H_c> = 1098926.9880154678
    <H_cAngle> = 0
    <J_re> = 0
    <J_im> = 0
    <Sigma> = 0.66600000000000004
    <d_lam> = 0
    <Phi_h> = 0
    <Phi_hx> = 0
    <Phi_hy> = 0
    <LamType> = 0
    <LamFill> = 1
    <NStrands> = 0
    <WireD> = 0
    <BHPoints> = 0
  <EndBlock>
  <BeginBlock>
    <BlockName> = "BMN-52UH_3"
    <Mu_x> = 1.05
    <Mu_y> = 1.05
    <H_c> = 1098926.9880154678
    <H_cAngle> = 0
    <J_re> = 0
    <J_im> = 0
    <Sigma> = 0.66600000000000004
    <d_lam> = 0
    <Phi_h> = 0
    <Phi_hx> = 0
    <Phi_hy> = 0
    <LamType> = 0
    <LamFill> = 1
    <NStrands> = 0
    <WireD> = 0
    <BHPoints> = 0
  <EndBlock>
  <BeginBlock>
    <BlockName> = "BMN-52UH_4"
    <Mu_x> = 1.05
    <Mu_y> = 1.05
    <H_c> = 1098926.9880154678
    <H_cAngle> = 0
    <J_re> = 0
    <J_im> = 0
    <Sigma> = 0.66600000000000004
    <d_lam> = 0
    <Phi_h> = 0
    <Phi_hx> = 0
    <Phi_hy> = 0
    <LamType> = 0
    <LamFill> = 1
    <NStrands> = 0
    <WireD> = 0
    <BHPoints> = 0
  <EndBlock>
  <BeginBlock>
    <BlockName> = "BMN-52UH_5"
    <Mu_x> = 1.05
    <Mu_y> = 1.05
    <H_c> = 1098926.9880154678
    <H_cAngle> = 0
    <J_re> = 0
    <J_im> = 0
    <Sigma> = 0.66600000000000004
    <d_lam> = 0
    <Phi_h> = 0
    <Phi_hx> = 0
    <Phi_hy> = 0
    <LamType> = 0
    <LamFill> = 1
    <NStrands> = 0
    <WireD> = 0
    <BHPoints> = 0
  <EndBlock>
  <BeginBlock>
    <BlockName> = "BMN-52UH_6"
    <Mu_x> = 1.05
    <Mu_y> = 1.05
    <H_c> = 1098926.9880154678
    <H_cAngle> = 0
    <J_re> = 0
    <J_im> = 0
    <Sigma> = 0.66600000000000004
    <d_lam> = 0
    <Phi_h> = 0
    <Phi_hx> = 0
    <Phi_hy> = 0
    <LamType> = 0
    <LamFill> = 1
    <NStrands> = 0
    <WireD> = 0
    <BHPoints> = 0
  <EndBlock>
[CircuitProps]  = 6
  <BeginCircuit>
    <CircuitName> = "fase1"
    <TotalAmps_re> = 0
    <TotalAmps_im> = 0
    <CircuitType> = 1
  <EndCircuit>
  <BeginCircuit>
    <CircuitName> = "fase2"
    <TotalAmps_re> = 0
    <TotalAmps_im> = 0
    <CircuitType> = 1
  <EndCircuit>
  <BeginCircuit>
    <CircuitName> = "fase3"
    <TotalAmps_re> = 0
    <TotalAmps_im> = 0
    <CircuitType> = 1
  <EndCircuit>
  <BeginCircuit>
    <CircuitName> = "fase1n"
    <TotalAmps_re> = 0
    <TotalAmps_im> = 0
    <CircuitType> = 1
  <EndCircuit>
  <BeginCircuit>
    <CircuitName> = "fase2n"
    <TotalAmps_re> = 0
    <TotalAmps_im> = 0
    <CircuitType> = 1
  <EndCircuit>
  <BeginCircuit>
    <CircuitName> = "fase3n"
    <TotalAmps_re> = 0
    <TotalAmps_im> = 0
    <CircuitType> = 1
  <EndCircuit>
[NumPoints] = 241
1140.4200651932108	74.027484115443428	0	2
1141.1663423819214	59.805993796787156	0	2
1150.2694308057771	75.063643372864661	0	2
1152.623264197355	77.859959742056063	0	2
1149.7617294894565	80.266845425824883	0	2
1134.9397407521913	78.70899163447811	0	2
1135.9447463973679	59.532341546923462	0	2
1119.8086213611041	60.514280081456718	0	2
1120.8595868521013	59.567986502945089	0	2
1129.4855747856495	60.020055374664658	0	2
1130.4318683641613	61.071020865662177	0	2
1129.2493419328575	83.634968811153584	0	2
1142.7152407249137	85.050291805857626	0	2
1151.3026272698226	95.419195875901551	0	2
1149.9846151553481	96.510755738096378	0	2
1118.0977676527446	93.159313016302008	0	2
1098.2955207169744	60.860550025403491	0	2
1099.346486207972	59.914256446891869	0	2
1113.3741251600241	60.649413852953188	0	2
1114.3204187385354	61.700379343950708	0	2
1112.4161081532163	98.024005683942534	0	2
1139.9318695054264	100.91668157105147	0	2
1149.718403028035	112.91658974067732	0	2
1144.1094916448283	117.49035915297866	0	2
1095.5949221167202	112.39127242348334	0	2
1140.5377984424115	71.79932662081761	0	2
1135.316202457858	71.525674370953908	0	2
1140.5369906817457	71.799284287874926	0	0
1129.4288773122232	80.209229697191105	0	2
1118.805630309166	79.65248891298566	0	2
1112.698219631719	92.654013603769627	0	2
1096.6733216101579	91.81418428522241	0	2
1112.6976381606239	92.65398313016081	0	0
1141.9126195706319	45.584503478130898	0	2
1151.8163374626952	45.585447495082043	0	2
1154.447655297038	43.048503797129001	0	2
1151.8533844374622	40.355691459368799	0	2
1136.9497520425446	40.355691459368806	0	2
1120.9459507918596	57.920063309399126	0	2
1119.9996572133477	56.869097818401606	0	2
1129.5719387254076	58.372132181118694	0	2
1130.622904216405	57.425838602607065	0	2
1131.8054306477088	34.861890657115659	0	2
1145.3455033748855	34.861890657115659	0	2
1154.9696929259999	25.447414847508441	0	2
1153.7730000947543	24.224064883556331	0	2
1121.7105109217073	24.224064883556331	0	2
1099.5869204687565	55.326960188328002	0	2
1098.6406268902449	54.275994697330482	0	2
1113.6145594208083	56.062117594389321	0	2
1114.665524911806	55.115824015877699	0	2
1116.5698354971253	18.792197675885873	0	2
1144.2372295948371	18.792846932033541	0	2
1155.223122922243	7.8802770116410343	0	2
1150.1230268304716	2.7452722992506153	0	2
1101.3412254904993	2.7452722992506224	0	2
1141.7948863214312	47.812660972756703	0	2
1136.5732903368778	47.539008722893008	0	2
1131.6258952683431	38.28762977107813	0	2
1121.0026482652859	37.730888986872671	0	2
1116.2877240186226	24.16218975605878	0	2
1100.2628259970616	23.322360437511563	0	2
1156.25	0	0	20
386.11000000000001	0	0	2
1149.9159415195661	120.86103565322431	0	20
383.99484902064404	40.359484952273675	0	2
0	0	0	2
1250	0	0	1
1158.25	0	0	20
1243.1523692103417	130.66057908456682	0	1
1151.9049853103024	121.07009257975962	0	20
1169.3430816971015	6.4920672209290435	0	1
1169.3491458238905	5.102280555117348	0	1
1169.7680498283605	8.106209250864417	0	1
1233.912492056417	8.386093955503652	0	1
1233.9292259935105	5.3840661009264323	0	1
1233.9386731540585	2.3819895561952165	0	1
1169.7942477681775	2.1021218204358791	0	1
1169.3552099506794	3.7124938893056525	0	1
1201.6504589473452	2.2411216456289433	0	1
1201.6242610075283	8.2452090760574812	0	1
1158.23207635576	6.4435860066540815	0	1
1158.2442046093379	3.6640126750306905	0	1
1169.2419034405568	16.696133935109806	0	1
1169.2600953591168	15.306453106933489	0	1
1169.6527695226077	18.313923002945796	0	1
1233.7923269030434	19.153555802559623	0	1
1233.8352575055999	16.151788285300452	0	1
1233.8709020339654	13.149908491427064	0	1
1169.7313613469846	12.310292807020852	0	1
1169.2782872776766	13.916772278757175	0	1
1201.5851465523347	12.727281697225196	0	1
1201.506554727958	18.730911893150139	0	1
1158.1317442452901	16.550693984317089	0	1
1158.1681280824098	13.771332327964457	0	1
1169.051682886161	26.898929174049698	0	1
1169.0820012111067	25.509460013084194	0	1
1169.4484156299611	28.520242078885264	0	1
1233.5782036871549	29.919559032185226	0	1
1233.6473276858426	26.918280448462355	0	1
1233.7091668675571	23.916826010215345	0	1
1169.5793953538259	22.517526317147336	0	1
1169.1123195360526	24.11999085211869	0	1
1201.428328796288	23.212472517044532	0	1
1201.2973490724232	29.21518827878246	0	1
1157.9432159186063	26.656541562554573	0	1
1158.0038525684981	23.877603240623568	0	1
1168.7724345199456	37.09967595538955	0	1
1168.8148769424197	35.710524275091018	0	1
1169.1550037127604	38.724389227969823	0	1
1233.2701387150632	40.68328377155224	0	1
1233.3654508458224	37.682722680349748	0	1
1233.4534799715921	34.681922170105196	0	1
1169.3383613615001	32.723045030464618	0	1
1168.8573193648936	34.321372594792486	0	1
1201.1800176214845	33.695895617210958	0	1
1200.996659972745	39.697239814716156	0	1
1157.6665057328707	36.76035914194707	0	1
1157.7513905778189	33.982055781350006	0	1
1168.4041796077549	47.297597452768159	0	1
1168.4587428956024	45.908869042415368	0	1
1168.7725561154596	48.925587364887093	0	1
1232.8681554471091	51.443910321348312	0	1
1232.9896484515518	48.444295227010436	0	1
1233.1038608176184	45.444377167345273	0	1
1169.0082777256794	42.926071757210408	0	1
1168.5133061834499	44.520140632062585	0	1
1200.8402319377817	44.176752644467157	0	1
1200.6045103275621	50.176268252143835	0	1
1157.301634760636	46.861377277667394	0	1
1157.4107613363308	44.08392045696182	0	1
1167.9469461936269	57.491917054980647	0	1
1168.0136261916421	56.103717671618732	0	1
1168.3011019629237	59.12305962890342	0	1
1232.3722844958745	62.200619218200231	0	1
1232.519949121838	59.202178553029881	0	1
1232.6603360304875	56.203371399319003	0	1
1168.5891695835101	53.125829497396857	0	1
1168.0803061896572	54.715518288256817	0	1
1200.4089976211749	54.65424544097224	0	1
1200.1209300005885	60.651475572478809	0	1
1156.8486307882386	56.958826738076823	0	1
1156.9819907842686	54.182427971352993	0	1
1167.4007690976553	67.681858425120396	0	1
1167.4795607278982	66.294293785507023	0	1
1167.7406771582114	69.316029443024775	0	1
1231.782563623852	72.952591297079181	0	1
1231.9563886261037	69.955553403941963	0	1
1232.1229393863296	66.958085526960474	0	1
1168.0810688516999	63.321541499982054	0	1
1167.5583523581413	64.906729145893664	0	1
1199.8863475118267	65.127576105084472	0	1
1199.5459558183381	71.1220640481272	0	1
1156.3075283136848	67.051938563305086	0	1
1156.4651115741704	64.276809284078354	0	1
1166.7656899133412	77.866645559700089	0	1
1166.8565871755243	76.479821332254758	0	1
1167.0913243798418	79.503720573136121	0	1
1231.0990377405697	83.699007753683418	0	1
1231.2990098816622	80.703600868618381	0	1
1231.4917118099793	77.707700537150288	0	1
1167.4840142240873	73.512431322022721	0	1
1166.9474844377071	75.092997104809427	0	1
1199.2723214115667	75.595947052124643	0	1
1198.8796315673212	81.587236303238043	0	1
1155.6783685440232	77.139944123809613	0	1
1155.8601630683893	74.366295668918937	0	1
1166.0417570044233	88.045502847747443	0	1
1166.1447529763677	86.659524644504373	0	1
1166.353093078543	89.685357187114647	0	1
1230.3217588991695	94.439050206793326	0	1
1230.5478629504505	91.445502441631973	0	1
1230.7667013718606	88.4513978050866	0	1
1166.7980511686931	83.697722887803238	0	1
1166.2477489483124	85.273546441261303	0	1
1198.5669660808596	86.058561075115179	0	1
1198.1220079907091	92.046195374426574	0	1
1154.9611993922067	87.222075178909677	0	1
1155.1671913360958	84.450118772423522	0	1
1165.2290255011953	98.21765512987092	0	1
1165.3441123393593	96.832628498436307	0	1
1165.5260394734864	99.860163913912402	0	1
1229.4507862924452	105.17190076059434	0	1
1229.703005035215	102.18044008558896	0	1
1229.9479632843254	99.188359156626547	0	1
1166.0232319242605	93.876640547936958	0	1
1165.4591991775233	95.447601867001708	0	1
1197.7703352352448	96.514621405490573	0	1
1197.273142784471	102.498144771466	0	1
1154.1560754734423	97.297563935290867	0	1
1154.3862491497705	94.527510672421656	0	1
1164.3275572963075	108.38232775729114	0	1
1164.4547262363828	106.99835817280533	0	1
1164.6102265480065	110.02736590260376	0	1
1228.4861862483322	115.89674206696286	0	1
1228.7645004751578	112.90759629342577	0	1
1229.035559897449	109.91776693059336	0	1
1165.159615496274	104.04840913843476	0	1
1164.5818951764581	105.61438858831951	0	1
1196.8824895412454	106.96333177377439	0	1
1196.3331005929781	112.94228853794338	0	1
1153.2630581010335	107.36564310547554	0	1
1153.5173959811841	104.59770393650393	0	1
1163.3374210400543	118.5387466508334	0	1
1163.4766623976338	117.1559395079385	0	1
1163.6057240448033	120.18618888139338	0	1
1227.4280322248587	126.6127573877105	0	1
1227.732420741034	123.62615415066531	0	1
1228.0295606942818	120.63880404104448	0	1
1164.2072676524688	114.21225403973688	0	1
1163.6159037552131	115.77313236504361	0	1
1195.9034966117486	117.40389647021826	0	1
1195.3019530040831	123.37783131187476	0	1
1152.2822152817112	117.42554596625476	0	1
1152.56069799687	114.65993168046498	0	1
1249.9524038302141	10.908169372967418	0	1
1158.2058973890764	10.10750974099161	0	1
1249.8096189454891	21.815508046604389	0	1
1158.0735929148902	20.214249755983626	0	1
1249.5716562194466	32.721185384841441	0	1
1157.8530966529393	30.31945037759408	0	1
1249.2385337738697	43.624370878126214	0	1
1157.5444253948676	40.422342055671749	0	1
1248.8102769773222	54.524234206670002	0	1
1157.1476026471869	50.522155415900421	0	1
1248.2869184432172	65.419945303679796	0	1
1156.6626586294851	60.618121318389697	0	1
1247.6684980273337	76.310674418571097	0	1
1156.0896302721274	70.70947091624798	0	1
1246.9550628247803	87.195592180156652	0	1
1155.4285612134413	80.795435714133149	0	1
1246.14666716641	98.073869659806178	0	1
1154.6795017963955	90.8752476267764	0	1
1245.2433726146819	108.94467843457272	0	1
1153.8425090647643	100.94813903747509	0	1
1244.2452479589736	119.80719065027999	0	1
1152.9176467587849	111.01334285654944	0	1
1157.5833333333333	0	0	20
1151.2419707133902	121.00040693758118	0	20
1156.9166666666667	0	0	20
1150.5789561164781	120.93072129540275	0	20
[NumSegments] = 232
0	27	1.8518518518518516	0	0	2
2	0	1.8518518518518516	0	0	2
5	4	1.8518518518518516	0	0	2
6	26	1.8518518518518516	0	0	2
9	8	1.8518518518518516	0	0	2
11	28	1.8518518518518516	0	0	2
12	11	1.8518518518518516	0	0	2
15	14	1.8518518518518516	0	0	2
7	29	1.8518518518518516	0	0	2
18	17	1.8518518518518516	0	0	2
20	32	1.8518518518518516	0	0	2
21	20	1.8518518518518516	0	0	2
24	23	1.8518518518518516	0	0	2
16	31	1.8518518518518516	0	0	2
1	6	1.8518518518518516	0	0	2
25	1	1.8518518518518516	0	0	2
26	5	1.8518518518518516	0	0	2
27	1	1.8518518518518516	0	0	2
26	27	1.8518518518518516	0	0	2
27	25	-1	0	0	0
10	7	1.8518518518518516	0	0	2
28	10	1.8518518518518516	0	0	2
29	15	1.8518518518518516	0	0	2
29	28	1.8518518518518516	0	0	2
19	16	1.8518518518518516	0	0	2
30	19	1.8518518518518516	0	0	2
31	24	1.8518518518518516	0	0	2
32	19	1.8518518518518516	0	0	2
31	32	1.8518518518518516	0	0	2
32	30	-1	0	0	0
33	1	1.8518518518518516	0	0	2
34	33	1.8518518518518516	0	0	2
37	36	1.8518518518518516	0	0	2
6	57	1.8518518518518516	0	0	2
40	38	1.8518518518518516	0	0	2
42	58	1.8518518518518516	0	0	2
43	42	1.8518518518518516	0	0	2
46	45	1.8518518518518516	0	0	2
39	59	1.8518518518518516	0	0	2
49	47	1.8518518518518516	0	0	2
51	50	1.8518518518518516	0	0	2
52	51	1.8518518518518516	0	0	2
55	54	1.8518518518518516	0	0	2
48	61	1.8518518518518516	0	0	2
56	1	1.8518518518518516	0	0	2
57	37	1.8518518518518516	0	0	2
57	56	1.8518518518518516	0	0	2
41	39	1.8518518518518516	0	0	2
58	41	1.8518518518518516	0	0	2
59	46	1.8518518518518516	0	0	2
59	58	1.8518518518518516	0	0	2
50	48	1.8518518518518516	0	0	2
60	50	1.8518518518518516	0	0	2
61	55	1.8518518518518516	0	0	2
61	60	1.8518518518518516	0	0	2
62	63	-1	4	0	2
65	64	-1	4	0	2
63	66	-1	2	0	2
66	65	-1	2	0	2
67	68	-1	10	0	1
70	69	-1	10	0	1
71	72	1.8518518518518516	0	0	1
73	71	1.8518518518518516	0	0	1
74	80	1.8518518518518516	0	0	1
75	74	1.8518518518518516	0	0	1
76	75	1.8518518518518516	0	0	1
77	79	1.8518518518518516	0	0	1
78	77	1.8518518518518516	0	0	1
72	78	1.8518518518518516	0	0	1
79	76	1.8518518518518516	0	0	1
80	73	1.8518518518518516	0	0	1
79	80	1.8518518518518516	0	0	1
71	81	1.8518518518518516	0	0	1
82	78	1.8518518518518516	0	0	1
83	84	1.8518518518518516	0	0	1
85	83	1.8518518518518516	0	0	1
86	92	1.8518518518518516	0	0	1
87	86	1.8518518518518516	0	0	1
88	87	1.8518518518518516	0	0	1
89	91	1.8518518518518516	0	0	1
90	89	1.8518518518518516	0	0	1
84	90	1.8518518518518516	0	0	1
91	88	1.8518518518518516	0	0	1
92	85	1.8518518518518516	0	0	1
91	92	1.8518518518518516	0	0	1
83	93	1.8518518518518516	0	0	1
94	90	1.8518518518518516	0	0	1
95	96	1.8518518518518516	0	0	1
97	95	1.8518518518518516	0	0	1
98	104	1.8518518518518516	0	0	1
99	98	1.8518518518518516	0	0	1
100	99	1.8518518518518516	0	0	1
101	103	1.8518518518518516	0	0	1
102	101	1.8518518518518516	0	0	1
96	102	1.8518518518518516	0	0	1
103	100	1.8518518518518516	0	0	1
104	97	1.8518518518518516	0	0	1
103	104	1.8518518518518516	0	0	1
95	105	1.8518518518518516	0	0	1
106	102	1.8518518518518516	0	0	1
107	108	1.8518518518518516	0	0	1
109	107	1.8518518518518516	0	0	1
110	116	1.8518518518518516	0	0	1
111	110	1.8518518518518516	0	0	1
112	111	1.8518518518518516	0	0	1
113	115	1.8518518518518516	0	0	1
114	113	1.8518518518518516	0	0	1
108	114	1.8518518518518516	0	0	1
115	112	1.8518518518518516	0	0	1
116	109	1.8518518518518516	0	0	1
115	116	1.8518518518518516	0	0	1
107	117	1.8518518518518516	0	0	1
118	114	1.8518518518518516	0	0	1
119	120	1.8518518518518516	0	0	1
121	119	1.8518518518518516	0	0	1