[Format]      =  4.0
[Frequency]   =  0
[Precision]   =  1e-008
[MinAngle]    =  15
[DoSmartMesh] =  1
[Depth]       =  1500
[LengthUnits] =  millimeters
[ProblemType] =  planar
[Coordinates] =  cartesian
[ACSolver]    =  0
[PrevType]    =  0
[PrevSoln]    =  ""
[Comment]     =  "Add comments here."
[PointProps]   = 0
[BdryProps]   = 11
  <BeginBdry>
    <BdryName> = "A=0"
    <BdryType> = 0
    <A_0> = 0
    <A_1> = 0
    <A_2> = 0
    <Phi> = 0
    <c0> = 0
    <c0i> = 0
    <c1> = 0
    <c1i> = 0
    <Mu_ssd> = 0
    <Sigma_ssd> = 0
    <innerangle> = 0
    <outerangle> = 0
  <EndBdry>
  <BeginBdry>
    <BdryName> = "APr1"
    <BdryType> = 5
    <A_0> = 0
    <A_1> = 0
    <A_2> = 0
    <Phi> = 0
    <c0> = 0
    <c0i> = 0
    <c1> = 0
    <c1i> = 0
    <Mu_ssd> = 0
    <Sigma_ssd> = 0
    <innerangle> = 0
    <outerangle> = 0
  <EndBdry>
  <BeginBdry>
    <BdryName> = "APr2"
    <BdryType> = 5
    <A_0> = 0
    <A_1> = 0
    <A_2> = 0
    <Phi> = 0
    <c0> = 0
    <c0i> = 0
    <c1> = 0
    <c1i> = 0
    <Mu_ssd> = 0
    <Sigma_ssd> = 0
    <innerangle> = 0
    <outerangle> = 0
  <EndBdry>
  <BeginBdry>
    <BdryName> = "APr3"
    <BdryType> = 5
    <A_0> = 0
    <A_1> = 0
    <A_2> = 0
    <Phi> = 0
    <c0> = 0
    <c0i> = 0
    <c1> = 0
    <c1i> = 0
    <Mu_ssd> = 0
    <Sigma_ssd> = 0
    <innerangle> = 0
    <outerangle> = 0
  <EndBdry>
  <BeginBdry>
    <BdryName> = "APg1"
    <BdryType> = 5
    <A_0> = 0
    <A_1> = 0
    <A_2> = 0
    <Phi> = 0
    <c0> = 0
    <c0i> = 0
    <c1> = 0
    <c1i> = 0
    <Mu_ssd> = 0
    <Sigma_ssd> = 0
    <innerangle> = 0
    <outerangle> = 0
  <EndBdry>
  <BeginBdry>
    <BdryName> = "APg2"
    <BdryType> = 5
    <A_0> = 0
    <A_1> = 0
    <A_2> = 0
    <Phi> = 0
    <c0> = 0
    <c0i> = 0
    <c1> = 0
    <c1i> = 0
    <Mu_ssd> = 0
    <Sigma_ssd> = 0
    <innerangle> = 0
    <outerangle> = 0
  <EndBdry>
  <BeginBdry>
    <BdryName> = "APg3"
    <BdryType> = 5
    <A_0> = 0
    <A_1> = 0
    <A_2> = 0
    <Phi> = 0
    <c0> = 0
    <c0i> = 0
    <c1> = 0
    <c1i> = 0
    <Mu_ssd> = 0
    <Sigma_ssd> = 0
    <innerangle> = 0
    <outerangle> = 0
  <EndBdry>
  <BeginBdry>
    <BdryName> = "APs1"
    <BdryType> = 5
    <A_0> = 0
    <A_1> = 0
    <A_2> = 0
    <Phi> = 0
    <c0> = 0
    <c0i> = 0
    <c1> = 0
    <c1i> = 0
    <Mu_ssd> = 0
    <Sigma_ssd> = 0
    <innerangle> = 0
    <outerangle> = 0
  <EndBdry>
  <BeginBdry>
    <BdryName> = "APs2"
    <BdryType> = 5
    <A_0> = 0
    <A_1> = 0
    <A_2> = 0
    <Phi> = 0
    <c0> = 0
    <c0i> = 0
    <c1> = 0
    <c1i> = 0
    <Mu_ssd> = 0
    <Sigma_ssd> = 0
    <innerangle> = 0
    <outerangle> = 0
  <EndBdry>
  <BeginBdry>
    <BdryName> = "APs3"
    <BdryType> = 5
    <A_0> = 0
    <A_1> = 0
    <A_2> = 0
    <Phi> = 0
    <c0> = 0
    <c0i> = 0
    <c1> = 0
    <c1i> = 0
    <Mu_ssd> = 0
    <Sigma_ssd> = 0
    <innerangle> = 0
    <outerangle> = 0
  <EndBdry>
  <BeginBdry>
    <BdryName> = "AGap"
    <BdryType> = 7
    <A_0> = 0
    <A_1> = 0
    <A_2> = 0
    <Phi> = 0
    <c0> = 0
    <c0i> = 0
    <c1> = 0
    <c1i> = 0
    <Mu_ssd> = 0
    <Sigma_ssd> = 0
    <innerangle> = 0
    <outerangle> = 0
  <EndBdry>
[BlockProps]  = 11
  <BeginBlock>
    <BlockName> = "M270-35A"
    <Mu_x> = 1
    <Mu_y> = 1
    <H_c> = 0
    <H_cAngle> = 0
    <J_re> = 0
    <J_im> = 0
    <Sigma> = 0
    <d_lam> = 0
    <Phi_h> = 0
    <Phi_hx> = 0
    <Phi_hy> = 0
    <LamType> = 0
    <LamFill> = 1
    <NStrands> = 0
    <WireD> = 0
    <BHPoints> = 200
      0	0
      0.0045422769999999999	3.2767874890000002
      0.0090353559999999996	6.114592773
      0.013222249	8.4602422570000009
      0.017196487	10.462328400000001
      0.020991169	12.199266809999999
      0.024640190999999999	13.72982376
      0.028168996000000002	15.09561901
      0.031597466999999997	16.327217480000002
      0.034941272000000002	17.447599879999999
      0.038212956999999999	18.47443998
      0.041422729999999998	19.421601849999998
      0.044579012000000001	20.300151339999999
      0.047688851999999997	21.119056130000001
      0.050758219	21.885681389999998
      0.053792226999999998	22.60614816
      0.056795300999999999	23.285597330000002
      0.059771310000000001	23.928387470000001
      0.062723663999999998	24.538245379999999
      0.065655396000000005	25.11838217
      0.068569221	25.67158405
      0.071467592999999996	26.200284
      0.074352739000000001	26.70661905
      0.077226698999999996	27.19247648
      0.080091349000000006	27.65953137
      0.082948429000000004	28.109277410000001
      0.085799557999999998	28.54305239
      0.088646256000000007	28.96205934
      0.091489953999999998	29.36738437
      0.094332005999999996	29.760011540000001
      0.097173704999999999	30.140835630000002
      0.100016285	30.510672870000001
      0.102860934	30.870270300000001
      0.105708802	31.220313650000001
      0.108561001	31.561434299999998
      0.11141862	31.894215259999999
      0.114282722	32.21919639
      0.117154355	32.536878999999999
      0.120034552	32.847729870000002
      0.12292433699999999	33.152184810000001
      0.12582473199999999	33.45065185
      0.12873675200000001	33.743513989999997
      0.13166142	34.031131799999997
      0.13459976100000001	34.313845620000002
      0.137552811	34.591977620000002
      0.14052161499999999	34.865833639999998
      0.14350723800000001	35.135704879999999
      0.14651076099999999	35.401869419999997
      0.14953328699999999	35.664593680000003
      0.15257594699999999	35.924133650000002
      0.155639899	36.180736189999998
      0.158726334	36.434640119999997
      0.161836481	36.686077320000003
      0.16497160599999999	36.93527375
      0.16813302299999999	37.182450420000002
      0.17132209400000001	37.427824389999998
      0.17454023399999999	37.671609650000001
      0.17778891699999999	37.914018050000003
      0.18106968000000001	38.155260249999998
      0.18438413100000001	38.395546590000002
      0.18773395400000001	38.635088090000004
      0.191120915	38.87409736
      0.19454686800000001	39.112789630000002
      0.19801376800000001	39.351383830000003
      0.20152367299999999	39.590103640000002
      0.20507876	39.829178749999997
      0.208681327	40.068846100000002
      0.21233381500000001	40.309351300000003
      0.216038808	40.550950149999998
      0.21979905799999999	40.793910310000001
      0.22361749	41.038513199999997
      0.227497227	41.285056060000002
      0.2314416	41.53385428
      0.23545417299999999	41.785244059999997
      0.23953876299999999	42.039585369999998
      0.24369946200000001	42.297265359999997
      0.247940667	42.558702250000003
      0.25226710400000002	42.824349750000003
      0.25668386300000001	43.0947022
      0.26119642799999998	43.370300520000001
      0.26581071499999998	43.651739030000002
      0.27054201700000002	43.94020278
      0.275438138	44.23873004
      0.28051031599999998	44.548036490000001
      0.28576849199999999	44.868763260000001
      0.29122336399999998	45.201605100000002
      0.296886504	45.547319020000003
      0.30277045699999999	45.906731970000003
      0.30888884599999999	46.280749559999997
      0.31525650100000002	46.670366299999998
      0.321889598	47.076677459999999
      0.328805825	47.50089294
      0.33602457000000002	47.944353649999996
      0.34356714500000002	48.408550759999997
      0.351457032	48.895148689999999
      0.35972019	49.406012390000001
      0.36838539799999998	49.943240269999997
      0.37748466600000002	50.509203810000002
      0.38705371900000002	51.106595769999998
      0.39713256899999999	51.738489119999997
      0.40776619800000002	52.408409570000003
      0.41900536300000002	53.120425429999997
      0.43090757000000002	53.879259759999997
      0.44353822799999998	54.690431349999997
      0.45697202599999998	55.560433060000001
      0.47129457299999999	56.49695913
      0.486604327	57.509196449999997
      0.503014823	58.60819978
      0.520657166	59.807376320000003
      0.53968265500000001	61.123111049999999
      0.56026517099999995	62.575567960000001
      0.58260257699999995	64.189698669999999
      0.60691558199999995	65.996464399999994
      0.63344113800000001	68.034201780000004
      0.662415215	70.349880479999996
      0.69403682899999997	72.999622560000006
      0.72840307800000004	76.047204840000006
      0.76540934699999996	79.558509650000005
      0.80463064699999998	83.589963030000007
      0.84524547999999999	88.171938179999998
      0.88609953900000005	93.294734669999997
      0.92594964300000004	98.90894376
      0.963771241	104.9435902
      0.99893980100000002	111.3300564
      1.0312218310000001	118.0174305
      1.0606584889999999	124.9760964
      1.0874410889999999	132.19454709999999
      1.1118223309999999	139.6744898
      1.1340651580000001	147.42664859999999
      1.1544176930000001	155.46782519999999
      1.173103241	163.8190534
      1.1903180360000001	172.50453999999999
      1.2062325739999999	181.55112829999999
      1.220994358	190.98810510000001
      1.234730984	200.84723579999999
      1.2475531	211.16296399999999
      1.2595570490000001	221.97273730000001
      1.270827143	233.31744900000001
      1.281437594	245.2419931
      1.291454146	257.79594609999998
      1.3009354369999999	271.03439809999998
      1.309934159	285.01896390000002
      1.318498043	299.81902289999999
      1.326670706	315.51324579999999
      1.3344924010000001	332.19149570000002
      1.3420006879999999	349.95721329999998
      1.3492310569999999	368.93044570000001
      1.356217531	389.25173360000002
      1.362993272	411.08716509999999
      1.3695912379999999	434.63503709999998
      1.3760449050000001	460.1347695
      1.382389146	487.87903890000001
      1.3886613240000001	518.23060969999995
      1.394902732	551.64618570000005
      1.401160583	588.71104339999999
      1.4074908660000001	630.19074279999995
      1.4139626249999999	677.11087850000001
      1.420664664	730.8848299
      1.4277165590000001	793.52783980000004
      1.435287779	868.03580320000003
      1.4436331710000001	959.10175079999999
      1.453164339	1074.5891859999999
      1.464608755	1228.9034079999999
      1.479413587	1451.8548430000001
      1.5007295060000001	1812.597843
      1.531321148	2396.2922779999999
      1.5749716949999999	3340.7297119999998
      1.6351726849999999	4868.8615820000005
      1.6746062129999999	6056.7860730000002
      1.7053540309999999	7126.7301200000002
      1.7307497590000001	8135.9466300000004
      1.752580204	9119.3875740000003
      1.771845345	10098.25848
      1.789165838	11087.22133
      1.804957089	12097.58993
      1.819514077	13138.977849999999
      1.8330565510000001	14220.25051
      1.845754994	15350.15127
      1.8577465099999999	16537.778849999999
      1.869145125	17793.012470000001
      1.8800488470000001	19126.948680000001
      1.8905448170000001	20552.403480000001
      1.9007133519999999	22084.53774
      1.9106314310000001	23741.68173
      1.920376064	25546.46932
      1.930027954	27527.455720000002
      1.9396760099999999	29721.505959999999
      1.9494234969999999	32177.45292
      1.959397184	34961.935420000002
      1.969762051	38169.180130000001
      1.980746793	41938.394229999998
      1.9926918389999999	46487.096960000003
      2.0061495709999999	52181.595710000001
      2.022124024	59707.652569999998
      2.042772002	70576.241299999994
      2.0725625070000002	88161.987269999998
      2.1158769670000002	116616.322
      2.1803765140000002	162656.4026
      2.2792825830000001	237150.818
      2.3747656959999999	310949.48619999998
  <EndBlock>
  <BeginBlock>
    <BlockName> = "ShaftAir"
    <Mu_x> = 1
    <Mu_y> = 1
    <H_c> = 0
    <H_cAngle> = 0
    <J_re> = 0
    <J_im> = 0
    <Sigma> = 0
    <d_lam> = 0
    <Phi_h> = 0
    <Phi_hx> = 0
    <Phi_hy> = 0
    <LamType> = 0
    <LamFill> = 1
    <NStrands> = 0
    <WireD> = 0
    <BHPoints> = 3
      -100	-7.9577471545947675e-011
      0	0
      100	7.9577471545947675e-011
  <EndBlock>
  <BeginBlock>
    <BlockName> = "Copper"
    <Mu_x> = 1
    <Mu_y> = 1
    <H_c> = 0
    <H_cAngle> = 0
    <J_re> = 0
    <J_im> = 0
    <Sigma> = 58
    <d_lam> = 0
    <Phi_h> = 0
    <Phi_hx> = 0
    <Phi_hy> = 0
    <LamType> = 0
    <LamFill> = 1
    <NStrands> = 0
    <WireD> = 0
    <BHPoints> = 0
  <EndBlock>
  <BeginBlock>
    <BlockName> = "Aluminium"
    <Mu_x> = 1
    <Mu_y> = 1
    <H_c> = 0
    <H_cAngle> = 0
    <J_re> = 0
    <J_im> = 0
    <Sigma> = 29
    <d_lam> = 0
    <Phi_h> = 0
    <Phi_hx> = 0
    <Phi_hy> = 0
    <LamType> = 0
    <LamFill> = 1
    <NStrands> = 0
    <WireD> = 0
    <BHPoints> = 0
  <EndBlock>
  <BeginBlock>
    <BlockName> = "BMN-38HS"
    <Mu_x> = 1.05
    <Mu_y> = 1.05
    <H_c> = 965000
    <H_cAngle> = 0
    <J_re> = 0
    <J_im> = 0
    <Sigma> = 0.66666700000000001
    <d_lam> = 0
    <Phi_h> = 0
    <Phi_hx> = 0
    <Phi_hy> = 0
    <LamType> = 0
    <LamFill> = 1
    <NStrands> = 0
    <WireD> = 0
    <BHPoints> = 0
  <EndBlock>
  <BeginBlock>
    <BlockName> = "DW235"
    <Mu_x> = 1
    <Mu_y> = 1
    <H_c> = 0
    <H_cAngle> = 0
    <J_re> = 0
    <J_im> = 0
    <Sigma> = 0
    <d_lam> = 0
    <Phi_h> = 0
    <Phi_hx> = 0
    <Phi_hy> = 0
    <LamType> = 0
    <LamFill> = 1
    <NStrands> = 0
    <WireD> = 0
    <BHPoints> = 0
  <EndBlock>
  <BeginBlock>
    <BlockName> = "Air"
    <Mu_x> = 1
    <Mu_y> = 1
    <H_c> = 0
    <H_cAngle> = 0
    <J_re> = 0
    <J_im> = 0
    <Sigma> = 0
    <d_lam> = 0
    <Phi_h> = 0
    <Phi_hx> = 0
    <Phi_hy> = 0
    <LamType> = 0
    <LamFill> = 1
    <NStrands> = 0
    <WireD> = 0
    <BHPoints> = 0
  <EndBlock>
  <BeginBlock>
    <BlockName> = "BMN-38HS_1"
    <Mu_x> = 1.05
    <Mu_y> = 1.05
    <H_c> = 954929.65855137201
    <H_cAngle> = 0
    <J_re> = 0
    <J_im> = 0
    <Sigma> = 0.66666700000000001
    <d_lam> = 0
    <Phi_h> = 0
    <Phi_hx> = 0
    <Phi_hy> = 0
    <LamType> = 0
    <LamFill> = 1
    <NStrands> = 0
    <WireD> = 0
    <BHPoints> = 0
  <EndBlock>
  <BeginBlock>
    <BlockName> = "BMN-38HS_2"
    <Mu_x> = 1.05
    <Mu_y> = 1.05
    <H_c> = 954929.65855137201
    <H_cAngle> = 0
    <J_re> = 0
    <J_im> = 0
    <Sigma> = 0.66666700000000001
    <d_lam> = 0
    <Phi_h> = 0
    <Phi_hx> = 0
    <Phi_hy> = 0
    <LamType> = 0
    <LamFill> = 1
    <NStrands> = 0
    <WireD> = 0
    <BHPoints> = 0
  <EndBlock>
  <BeginBlock>
    <BlockName> = "BMN-38HS_3"
    <Mu_x> = 1.05
    <Mu_y> = 1.05
    <H_c> = 954929.65855137201
    <H_cAngle> = 0
    <J_re> = 0
    <J_im> = 0
    <Sigma> = 0.66666700000000001
    <d_lam> = 0
    <Phi_h> = 0
    <Phi_hx> = 0
    <Phi_hy> = 0
    <LamType> = 0
    <LamFill> = 1
    <NStrands> = 0
    <WireD> = 0
    <BHPoints> = 0
  <EndBlock>
  <BeginBlock>
    <BlockName> = "BMN-38HS_4"
    <Mu_x> = 1.05
    <Mu_y> = 1.05
    <H_c> = 954929.65855137201
    <H_cAngle> = 0
    <J_re> = 0
    <J_im> = 0
    <Sigma> = 0.66666700000000001
    <d_lam> = 0
    <Phi_h> = 0
    <Phi_hx> = 0
    <Phi_hy> = 0
    <LamType> = 0
    <LamFill> = 1
    <NStrands> = 0
    <WireD> = 0
    <BHPoints> = 0
  <EndBlock>
[CircuitProps]  = 6
  <BeginCircuit>
    <CircuitName> = "fase1"
    <TotalAmps_re> = 0
    <TotalAmps_im> = 0
    <CircuitType> = 1
  <EndCircuit>
  <BeginCircuit>
    <CircuitName> = "fase2"
    <TotalAmps_re> = 0
    <TotalAmps_im> = 0
    <CircuitType> = 1
  <EndCircuit>
  <BeginCircuit>
    <CircuitName> = "fase3"
    <TotalAmps_re> = 0
    <TotalAmps_im> = 0
    <CircuitType> = 1
  <EndCircuit>
  <BeginCircuit>
    <CircuitName> = "fase1n"
    <TotalAmps_re> = 0
    <TotalAmps_im> = 0
    <CircuitType> = 1
  <EndCircuit>
  <BeginCircuit>
    <CircuitName> = "fase2n"
    <TotalAmps_re> = 0
    <TotalAmps_im> = 0
    <CircuitType> = 1
  <EndCircuit>
  <BeginCircuit>
    <CircuitName> = "fase3n"
    <TotalAmps_re> = 0
    <TotalAmps_im> = 0
    <CircuitType> = 1
  <EndCircuit>
[NumPoints] = 209
1109.1237668169315	50.281630252357758	0	2
1110.1664344258788	49.326201418141238	0	2
1122.5189680899714	49.865524685224663	0	2
1123.4743969241879	50.908192294171855	0	2
1122.4507910881523	74.352620376736411	0	2
1139.3209249848587	75.828565844862638	0	2
1145.9533318221754	83.617948346362795	0	2
1138.2756286679291	90.15646787594622	0	2
1107.5010313612001	87.463364874120117	0	2
1109.6232909277223	50.303439946040427	0	2
1108.5996850916868	73.747868028604984	0	2
1123.4469857862443	74.43977611948408	0	2
1122.2393229149448	88.25091700081947	0	2
1139.0673186523227	75.806378165767356	0	2
1137.8596557810233	89.617519047102746	0	2
1110.2409776959967	47.618879836148977	0	2
1109.2855488617802	46.576212227201779	0	2
1122.5935113600892	48.158203103232402	0	2
1123.6361789690366	47.202774269015876	0	2
1124.6597848050721	23.758346186451316	0	2
1141.5943598725985	23.758346186451316	0	2
1148.8804178169846	16.576656981159239	0	2
1141.8004943828037	9.3951496512454611	0	2
1110.9082843175115	9.3944776054394126	0	2
1109.785072972571	46.598021920884449	0	2
1110.8086788086066	23.153593838319889	0	2
1125.6597848050721	23.758346186451323	0	2
1125.6591319128374	9.8945061113299815	0	2
1141.3397848050722	23.75834618645132	0	2
1141.3391319128375	9.8945061113299744	0	2
1150	0	0	20
386.11000000000001	0	0	2
1145.6239028055074	100.22910415980689	0	20
384.64073488020387	33.651703832298296	0	2
0	0	0	2
1250	0	0	1
1152	0	0	20
1245.2433726146819	108.94467843457271	0	1
1147.6162922016908	100.4034156453022	0	20
1163.0986578396935	5.3810894310799711	0	1
1163.1028463192881	4.2291799316015393	0	1
1163.359660001827	6.369525044551513	0	1
1234.0099865525699	6.6264180133504853	0	1
1234.0196200967134	4.4870417341261639	0	1
1234.0255446535111	2.3476519686460562	0	1
1163.3752181027687	2.0907589997848737	0	1
1163.1070347988828	3.0772704321231075	0	1
1198.568085011635	2.2187244389010319	0	1
1198.5525269106934	6.4974904836676712	0	1
1151.987620179847	5.3406883800129936	0	1
1151.9959971390363	3.03686938105613	0	1
1163.0287707154553	13.839164716791004	0	1
1163.0413359327324	12.687316135741941	0	1
1163.2825779328061	14.829472238239735	0	1
1233.929168159706	15.600137558919908	0	1
1233.9543592953237	13.460887906362554	0	1
1233.975841639744	11.321597795626639	0	1
1163.329251412845	10.550932474884259	0	1
1163.0539011500098	11.535467554692875	0	1
1198.5202571562481	10.934822024814316	0	1
1198.4735836762093	15.21336178816979	0	1
1151.9183206598982	13.717963700188978	0	1
1151.9434510944525	11.41426653809085	0	1
1162.8973771221304	22.296508121934441	0	1
1162.9183184125816	21.144781374522456	0	1
1163.1439759721707	23.288635179208878	0	1
1233.7830937489794	24.573032095338501	0	1
1233.8238411438447	22.434022203100469	0	1
1233.8608801397995	20.294944882900719	0	1
1163.221762362992	19.010547966708902	0	1
1162.9392597030333	19.993054627110471	0	1
1198.4090458738965	19.650341325555488	0	1
1198.331259483075	23.928428538055467	0	1
1151.7881022440765	22.094513549481093	0	1
1151.8299848249796	19.79106005465712	0	1
1162.7044840084341	30.752672382140041	0	1
1162.7338002645852	29.601128377129708	0	1
1162.9438614498488	31.74656650686304	0	1
1233.5717710454965	33.544627093450728	0	1
1233.6280725446943	31.405970082504716	0	1
1233.6806662333861	29.267218677379738	0	1
1163.05275663774	27.469158090729856	0	1
1162.7631165207363	28.449584372119372	0	1
1198.2344570459591	28.364821423190328	0	1
1198.1255618580676	32.642229839323512	0	1
1151.5969718189488	30.469894936264932	0	1
1151.6556043312514	28.166806926244263	0	1
1162.4501015754672	39.20721029539633	0	1
1162.487791246936	38.055909931887939	0	1
1162.6822449488441	40.202818925739841	0	1
1233.2952112250025	42.514448092826818	0	1
1233.367063851043	40.376257065483479	0	1
1233.4352094510682	38.237944682735936	0	1
1162.822243174912	35.926315515586786	0	1
1162.5254809184044	36.904609568379549	0	1
1197.9964999055198	37.077801454742577	0	1
1197.8565016794519	41.354304864895632	0	1
1151.3449394923969	38.843664930709934	0	1
1151.4203188353338	36.541064203693146	0	1
1162.1342432761783	47.659674745700769	0	1
1162.1803043697557	46.50867890990969	0	1
1162.359140304676	48.656945229165572	0	1
1232.9534289132907	51.482020726854415	0	1
1233.0408288662666	49.344408760780986	0	1
1233.1245227737634	47.206648484495979	0	1
1162.5302341651513	44.381572986744985	0	1
1162.2263654633332	45.357683074118611	0	1
1197.6951870368796	45.788820636566598	0	1
1197.524093176404	50.064192878987193	0	1
1151.0320185930832	47.215380688203595	0	1
1151.1241407802381	44.91338901662143	0	1
1161.7569258146498	56.109618726705364	0	1
1161.8113558944074	54.958988288742098	0	1
1161.9745646046485	57.108498322905575	0	1
1232.5464421854283	60.4468707478254	0	1
1232.649384843216	58.309950890065636	0	1
1232.7486226320543	56.172855775130223	0	1
1162.176745051278	52.834483350148268	0	1
1161.8657859741652	53.808357850778833	0	1
1197.3305343748896	54.497418288715764	0	1
1197.1283539282601	58.771433261473064	0	1
1150.6582256697475	55.584599472771181	0	1
1150.7670858292629	53.283338596844651	0	1
1161.3181691452153	64.556595365356443	0	1
1161.380965332633	63.406391176007524	0	1
1161.5285381869455	65.55703124880867	0	1
1232.0742725648004	69.408524052016318	0	1
1232.192752483305	67.272409313011963	0	1
1232.3075289053204	65.136092379136372	0	1
1161.7617945274692	61.284599575866622	0	1
1161.4437615200507	62.256186986658619	0	1
1196.9025612041091	63.203133859305375	0	1
1196.6693048635855	67.475565532247415	0	1
1150.2235804903294	63.950878680489708	0	1
1150.3491728651643	61.650470301791877	0	1
1160.8179964714063	73.000157945527476	0	1
1160.889155445524	71.85044083303741	0	1
1161.0210846395562	74.002097208444496	0	1
1231.5369450219728	78.366506704761235	0	1
1231.6709559354149	76.231310052375591	0	1
1231.8012649206869	74.095884278116117	0	1
1161.2854045382744	69.731474781737305	0	1
1160.9603144196412	70.700723720547344	0	1
1196.4112901577867	71.905506948868918	0	1
1196.1469702590684	76.176129375576096	0	1
1149.7281060409241	72.313775862894957	0	1
1149.8704239891595	70.014341637914811	0	1
1160.2564342447215	81.439859931643511	0	1
1160.3359522423157	80.290690698497855	0	1
1160.4522307990276	82.443249586732279	0	1
1230.9344879733708	87.320344965515631	0	1
1231.0840227946189	85.186179319059207	0	1
1231.2298574517911	83.051757635843401	0	1
1160.7476002774522	78.174662256998005	0	1
1160.4154702399098	79.141521465352199	0	1
1195.8567472166617	80.60407733470602	0	1
1195.5613777382368	84.872664664440293	0	1
1149.1718285245674	80.672848750380183	0	1
1149.3308645197558	78.374510284088856	0	1
1159.6335121632314	89.875254992296092	0	1
1159.7213849790137	88.726694412005941	0	1
1159.8220067490445	90.880041975559934	0	1
1230.2669332797759	96.269565312910089	0	1
1230.4319841007202	94.136543537168919	0	1
1230.5933367173654	92.003238823323272	0	1
1160.1484101866388	86.613715485911101	0	1
1159.8092577947962	87.578133831715789	0	1
1195.2389617075905	89.298384995221369	0	1
1194.912558269996	93.564711484870202	0	1
1148.5547773598487	89.027655275585516	0	1
1148.7305229914134	86.730534115005213	0	1
1158.9492631700055	98.305897023847379	0	1
1159.0454861568453	97.158005837735402	0	1
1159.130445818839	99.312028197392323	0	1
1229.5343162446418	105.21369446979233	0	1
1229.7148743366133	103.08192936905913	0	1
1229.8917363796409	100.94985444383948	0	1
1159.4878659538435	95.04818817137749	0	1
1159.1417091436854	96.010114651623425	0	1
1194.5579663019969	97.987970134252734	0	1
1194.2005461669921	102.25181016026755	0	1
1147.876985179355	97.3777535967765	0	1
1148.0694311530351	95.081971224552547	0	1
1249.9669470402218	9.0901763980270491	0	1
1151.9695383922683	8.3775065684217278	0	1
1249.8677899088843	18.179872064478321	0	1
1151.8781551800278	16.754570094623219	0	1
1249.7025338498863	27.268606293201401	0	1
1151.7258551960554	25.130747559814409	0	1
1249.4711876027507	36.355898428889255	0	1
1151.512646494695	33.505595992064336	0	1
1249.1737634021626	45.44126789249956	0	1
1151.2385403514329	41.878672489727592	0	1
1248.8102769773222	54.524234206670002	0	1
1150.9035512623002	50.249534244867071	0	1
1248.380747551113	63.604317021128161	0	1
1150.5076969431057	58.617738566671719	0	1
1247.8851978390853	72.681036138094782	0	1
1150.050998328501	66.98284290486815	0	1
1247.3236540482544	81.753911537678832	0	1
1149.5334795708711	75.344404873124802	0	1
1246.6961458757153	90.822463403263242	0	1
1148.9551680390591	83.70198227244741	0	1
1246.0027065070719	99.886212146879956	0	1
1148.3160943169175	92.055133114564569	0	1
1151.3333333333333	0	0	20
1146.952162402963	100.34531181680376	0	20
1150.6666666666667	0	0	20
1146.2880326042352	100.28720798830534	0	20
[NumSegments] = 203
2	1	1.5432098765432098	0	0	2
4	3	1.5432098765432098	0	0	2
5	13	1.5432098765432098	0	0	2
8	7	1.5432098765432098	0	0	2
0	8	1.5432098765432098	0	0	2
3	9	1.5432098765432098	0	0	2
10	4	1.5432098765432098	0	0	2
9	10	1.5432098765432098	0	0	2
11	4	1.5432098765432098	0	0	2
11	12	1.5432098765432098	0	0	2
13	11	1.5432098765432098	0	0	2
14	13	1.5432098765432098	0	0	2
12	14	1.5432098765432098	0	0	2
17	15	1.5432098765432098	0	0	2
19	18	1.5432098765432098	0	0	2
20	28	1.5432098765432098	0	0	2
23	22	1.5432098765432098	0	0	2
16	23	1.5432098765432098	0	0	2
18	24	1.5432098765432098	0	0	2
25	19	1.5432098765432098	0	0	2
24	25	1.5432098765432098	0	0	2
26	19	1.5432098765432098	0	0	2
26	27	1.5432098765432098	0	0	2
28	26	1.5432098765432098	0	0	2
29	28	1.5432098765432098	0	0	2
27	29	1.5432098765432098	0	0	2
30	31	-1	4	0	2
33	32	-1	4	0	2
31	34	-1	2	0	2
34	33	-1	2	0	2
35	36	-1	10	0	1
38	37	-1	10	0	1
39	40	1.5432098765432098	0	0	1
41	39	1.5432098765432098	0	0	1
42	48	1.5432098765432098	0	0	1
43	42	1.5432098765432098	0	0	1
44	43	1.5432098765432098	0	0	1
45	47	1.5432098765432098	0	0	1
46	45	1.5432098765432098	0	0	1
40	46	1.5432098765432098	0	0	1
47	44	1.5432098765432098	0	0	1
48	41	1.5432098765432098	0	0	1
47	48	1.5432098765432098	0	0	1
39	49	1.5432098765432098	0	0	1
50	46	1.5432098765432098	0	0	1
51	52	1.5432098765432098	0	0	1
53	51	1.5432098765432098	0	0	1
54	60	1.5432098765432098	0	0	1
55	54	1.5432098765432098	0	0	1
56	55	1.5432098765432098	0	0	1
57	59	1.5432098765432098	0	0	1
58	57	1.5432098765432098	0	0	1
52	58	1.5432098765432098	0	0	1
59	56	1.5432098765432098	0	0	1
60	53	1.5432098765432098	0	0	1
59	60	1.5432098765432098	0	0	1
51	61	1.5432098765432098	0	0	1
62	58	1.5432098765432098	0	0	1
63	64	1.5432098765432098	0	0	1
65	63	1.5432098765432098	0	0	1
66	72	1.5432098765432098	0	0	1
67	66	1.5432098765432098	0	0	1
68	67	1.5432098765432098	0	0	1
69	71	1.5432098765432098	0	0	1
70	69	1.5432098765432098	0	0	1
64	70	1.5432098765432098	0	0	1
71	68	1.5432098765432098	0	0	1
72	65	1.5432098765432098	0	0	1
71	72	1.5432098765432098	0	0	1
63	73	1.5432098765432098	0	0	1
74	70	1.5432098765432098	0	0	1
75	76	1.5432098765432098	0	0	1
77	75	1.5432098765432098	0	0	1
78	84	1.5432098765432098	0	0	1
79	78	1.5432098765432098	0	0	1
80	79	1.5432098765432098	0	0	1
81	83	1.5432098765432098	0	0	1
82	81	1.5432098765432098	0	0	1
76	82	1.5432098765432098	0	0	1
83	80	1.5432098765432098	0	0	1
84	77	1.5432098765432098	0	0	1
83	84	1.5432098765432098	0	0	1
75	85	1.5432098765432098	0	0	1
86	82	1.5432098765432098	0	0	1
87	88	1.5432098765432098	0	0	1
89	87	1.5432098765432098	0	0	1
90	96	1.5432098765432098	0	0	1
91	90	1.5432098765432098	0	0	1
92	91	1.5432098765432098	0	0	1
93	95	1.5432098765432098	0	0	1
94	93	1.5432098765432098	0	0	1
88	94	1.5432098765432098	0	0	1
95	92	1.5432098765432098	0	0	1
96	89	1.5432098765432098	0	0	1
95	96	1.5432098765432098	0	0	1
87	97	1.5432098765432098	0	0	1
98	94	1.5432098765432098	0	0	1
99	100	1.5432098765432098	0	0	1
101	99	1.5432098765432098	0	0	1
102	108	1.5432098765432098	0	0	1
103	102	1.5432098765432098	0	0	1
104	103	1.5432098765432098	0	0	1
105	107	1.5432098765432098	0	0	1
106	105	1.5432098765432098	0	0	1
100	106	1.5432098765432098	0	0	1
107	104	1.5432098765432098	0	0	1
108	101	1.5432098765432098	0	0	1
107	108	1.5432098765432098	0	0	1
99	109	1.5432098765432098	0	0	1
110	106	1.5432098765432098	0	0	1
111	112	1.5432098765432098	0	0	1
113	111	1.5432098765432098	0	0	1
114	120	1.5432098765432098	0	0	1
115	114	1.5432098765432098	0	0	1
116	115	1.5432098765432098	0	0	1
117	119	1.5432098765432098	0	0	1
118	117	1.5432098765432098	0	0	1
112	118	1.5432098765432098	0	0	1
119	116	1.5432098765432098	0	0	1
120	113	1.5432098765432098	0	0	1
119	120	1.5432098765432098	0	0	1
111	121	1.5432098765432098	0	0	1
122	118	1.5432098765432098	0	0	1
123	124	1.5432098765432098	0	0	1
125	123	1.5432098765432098	0	0	1
126	132	1.5432098765432098	0	0	1
127	126	1.5432098765432098	0	0	1
128	127	1.5432098765432098	0	0	1
129	131	1.5432098765432098	0	0	1
130	129	1.5432098765432098	0	0	1
124	130	1.5432098765432098	0	0	1
131	128	1.5432098765432098	0	0	1
132	125	1.5432098765432098	0	0	1
131	132	1.5432098765432098	0	0	1
123	133	1.5432098765432098	0	0	1
134	130	1.5432098765432098	0	0	1
135	136	1.5432098765432098	0	0	1
137	135	1.5432098765432098	0	0	1
138	144	1.5432098765432098	0	0	1
139	138	1.5432098765432098	0	0	1
140	139	1.5432098765432098	0	0	1
141	143	1.5432098765432098	0	0	1
142	141	1.5432098765432098	0	0	1
136	142	1.5432098765432098	0	0	1
143	140	1.5432098765432098	0	0	1
144	137	1.5432098765432098	0	0	1
143	144	1.5432098765432098	0	0	1
135	145	1.5432098765432098	0	0	1
146	142	1.5432098765432098	0	0	1
147	148	1.5432098765432098	0	0	1
149	147	1.5432098765432098	0	0	1
150	156	1.5432098765432098	0	0	1
151	150	1.5432098765432098	0	0	1
152	151	1.5432098765432098	0	0	1
153	155	1.5432098765432098	0	0	1
154	153	1.5432098765432098	0	0	1
148	154	1.5432098765432098	0	0	1
155	152	1.5432098765432098	0	0	1
156	149	1.5432098765432098	0	0	1
155	156	1.5432098765432098	0	0	1
147	157	1.5432098765432098	0	0	1
158	154	1.5432098765432098	0	0	1
159	160	1.5432098765432098	0	0	1
161	159	1.5432098765432098	0	0	1
162	168	1.5432098765432098	0	0	1
163	162	1.5432098765432098	0	0	1
164	163	1.5432098765432098	0	0	1
165	167	1.5432098765432098	0	0	1
166	165	1.5432098765432098	0	0	1
160	166	1.5432098765432098	0	0	1
167	164	1.5432098765432098	0	0	1
168	161	1.5432098765432098	0	0	1
167	168	1.5432098765432098	0	0	1
159	169	1.5432098765432098	0	0	1
170	166	1.5432098765432098	0	0	1
171	172	1.5432098765432098	0	0	1
173	171	1.5432098765432098	0	0	1
174	180	1.5432098765432098	0	0	1