[Format]      =  4.0
[Frequency]   =  0
[Precision]   =  1e-008
[MinAngle]    =  15
[DoSmartMesh] =  1
[Depth]       =  1500
[LengthUnits] =  millimeters
[ProblemType] =  planar
[Coordinates] =  cartesian
[ACSolver]    =  0
[PrevType]    =  0
[PrevSoln]    =  ""
[Comment]     =  "Add comments here."
[PointProps]   = 0
[BdryProps]   = 11
  <BeginBdry>
    <BdryName> = "A=0"
    <BdryType> = 0
    <A_0> = 0
    <A_1> = 0
    <A_2> = 0
    <Phi> = 0
    <c0> = 0
    <c0i> = 0
    <c1> = 0
    <c1i> = 0
    <Mu_ssd> = 0
    <Sigma_ssd> = 0
    <innerangle> = 0
    <outerangle> = 0
  <EndBdry>
  <BeginBdry>
    <BdryName> = "APr1"
    <BdryType> = 5
    <A_0> = 0
    <A_1> = 0
    <A_2> = 0
    <Phi> = 0
    <c0> = 0
    <c0i> = 0
    <c1> = 0
    <c1i> = 0
    <Mu_ssd> = 0
    <Sigma_ssd> = 0
    <innerangle> = 0
    <outerangle> = 0
  <EndBdry>
  <BeginBdry>
    <BdryName> = "APr2"
    <BdryType> = 5
    <A_0> = 0
    <A_1> = 0
    <A_2> = 0
    <Phi> = 0
    <c0> = 0
    <c0i> = 0
    <c1> = 0
    <c1i> = 0
    <Mu_ssd> = 0
    <Sigma_ssd> = 0
    <innerangle> = 0
    <outerangle> = 0
  <EndBdry>
  <BeginBdry>
    <BdryName> = "APr3"
    <BdryType> = 5
    <A_0> = 0
    <A_1> = 0
    <A_2> = 0
    <Phi> = 0
    <c0> = 0
    <c0i> = 0
    <c1> = 0
    <c1i> = 0
    <Mu_ssd> = 0
    <Sigma_ssd> = 0
    <innerangle> = 0
    <outerangle> = 0
  <EndBdry>
  <BeginBdry>
    <BdryName> = "APg1"
    <BdryType> = 5
    <A_0> = 0
    <A_1> = 0
    <A_2> = 0
    <Phi> = 0
    <c0> = 0
    <c0i> = 0
    <c1> = 0
    <c1i> = 0
    <Mu_ssd> = 0
    <Sigma_ssd> = 0
    <innerangle> = 0
    <outerangle> = 0
  <EndBdry>
  <BeginBdry>
    <BdryName> = "APg2"
    <BdryType> = 5
    <A_0> = 0
    <A_1> = 0
    <A_2> = 0
    <Phi> = 0
    <c0> = 0
    <c0i> = 0
    <c1> = 0
    <c1i> = 0
    <Mu_ssd> = 0
    <Sigma_ssd> = 0
    <innerangle> = 0
    <outerangle> = 0
  <EndBdry>
  <BeginBdry>
    <BdryName> = "APg3"
    <BdryType> = 5
    <A_0> = 0
    <A_1> = 0
    <A_2> = 0
    <Phi> = 0
    <c0> = 0
    <c0i> = 0
    <c1> = 0
    <c1i> = 0
    <Mu_ssd> = 0
    <Sigma_ssd> = 0
    <innerangle> = 0
    <outerangle> = 0
  <EndBdry>
  <BeginBdry>
    <BdryName> = "APs1"
    <BdryType> = 5
    <A_0> = 0
    <A_1> = 0
    <A_2> = 0
    <Phi> = 0
    <c0> = 0
    <c0i> = 0
    <c1> = 0
    <c1i> = 0
    <Mu_ssd> = 0
    <Sigma_ssd> = 0
    <innerangle> = 0
    <outerangle> = 0
  <EndBdry>
  <BeginBdry>
    <BdryName> = "APs2"
    <BdryType> = 5
    <A_0> = 0
    <A_1> = 0
    <A_2> = 0
    <Phi> = 0
    <c0> = 0
    <c0i> = 0
    <c1> = 0
    <c1i> = 0
    <Mu_ssd> = 0
    <Sigma_ssd> = 0
    <innerangle> = 0
    <outerangle> = 0
  <EndBdry>
  <BeginBdry>
    <BdryName> = "APs3"
    <BdryType> = 5
    <A_0> = 0
    <A_1> = 0
    <A_2> = 0
    <Phi> = 0
    <c0> = 0
    <c0i> = 0
    <c1> = 0
    <c1i> = 0
    <Mu_ssd> = 0
    <Sigma_ssd> = 0
    <innerangle> = 0
    <outerangle> = 0
  <EndBdry>
  <BeginBdry>
    <BdryName> = "AGap"
    <BdryType> = 7
    <A_0> = 0
    <A_1> = 0
    <A_2> = 0
    <Phi> = 0
    <c0> = 0
    <c0i> = 0
    <c1> = 0
    <c1i> = 0
    <Mu_ssd> = 0
    <Sigma_ssd> = 0
    <innerangle> = 0
    <outerangle> = 0
  <EndBdry>
[BlockProps]  = 13
  <BeginBlock>
    <BlockName> = "M270-35A"
    <Mu_x> = 1
    <Mu_y> = 1
    <H_c> = 0
    <H_cAngle> = 0
    <J_re> = 0
    <J_im> = 0
    <Sigma> = 0
    <d_lam> = 0
    <Phi_h> = 0
    <Phi_hx> = 0
    <Phi_hy> = 0
    <LamType> = 0
    <LamFill> = 1
    <NStrands> = 0
    <WireD> = 0
    <BHPoints> = 200
      0	0
      0.0045422769999999999	3.2767874890000002
      0.0090353559999999996	6.114592773
      0.013222249	8.4602422570000009
      0.017196487	10.462328400000001
      0.020991169	12.199266809999999
      0.024640190999999999	13.72982376
      0.028168996000000002	15.09561901
      0.031597466999999997	16.327217480000002
      0.034941272000000002	17.447599879999999
      0.038212956999999999	18.47443998
      0.041422729999999998	19.421601849999998
      0.044579012000000001	20.300151339999999
      0.047688851999999997	21.119056130000001
      0.050758219	21.885681389999998
      0.053792226999999998	22.60614816
      0.056795300999999999	23.285597330000002
      0.059771310000000001	23.928387470000001
      0.062723663999999998	24.538245379999999
      0.065655396000000005	25.11838217
      0.068569221	25.67158405
      0.071467592999999996	26.200284
      0.074352739000000001	26.70661905
      0.077226698999999996	27.19247648
      0.080091349000000006	27.65953137
      0.082948429000000004	28.109277410000001
      0.085799557999999998	28.54305239
      0.088646256000000007	28.96205934
      0.091489953999999998	29.36738437
      0.094332005999999996	29.760011540000001
      0.097173704999999999	30.140835630000002
      0.100016285	30.510672870000001
      0.102860934	30.870270300000001
      0.105708802	31.220313650000001
      0.108561001	31.561434299999998
      0.11141862	31.894215259999999
      0.114282722	32.21919639
      0.117154355	32.536878999999999
      0.120034552	32.847729870000002
      0.12292433699999999	33.152184810000001
      0.12582473199999999	33.45065185
      0.12873675200000001	33.743513989999997
      0.13166142	34.031131799999997
      0.13459976100000001	34.313845620000002
      0.137552811	34.591977620000002
      0.14052161499999999	34.865833639999998
      0.14350723800000001	35.135704879999999
      0.14651076099999999	35.401869419999997
      0.14953328699999999	35.664593680000003
      0.15257594699999999	35.924133650000002
      0.155639899	36.180736189999998
      0.158726334	36.434640119999997
      0.161836481	36.686077320000003
      0.16497160599999999	36.93527375
      0.16813302299999999	37.182450420000002
      0.17132209400000001	37.427824389999998
      0.17454023399999999	37.671609650000001
      0.17778891699999999	37.914018050000003
      0.18106968000000001	38.155260249999998
      0.18438413100000001	38.395546590000002
      0.18773395400000001	38.635088090000004
      0.191120915	38.87409736
      0.19454686800000001	39.112789630000002
      0.19801376800000001	39.351383830000003
      0.20152367299999999	39.590103640000002
      0.20507876	39.829178749999997
      0.208681327	40.068846100000002
      0.21233381500000001	40.309351300000003
      0.216038808	40.550950149999998
      0.21979905799999999	40.793910310000001
      0.22361749	41.038513199999997
      0.227497227	41.285056060000002
      0.2314416	41.53385428
      0.23545417299999999	41.785244059999997
      0.23953876299999999	42.039585369999998
      0.24369946200000001	42.297265359999997
      0.247940667	42.558702250000003
      0.25226710400000002	42.824349750000003
      0.25668386300000001	43.0947022
      0.26119642799999998	43.370300520000001
      0.26581071499999998	43.651739030000002
      0.27054201700000002	43.94020278
      0.275438138	44.23873004
      0.28051031599999998	44.548036490000001
      0.28576849199999999	44.868763260000001
      0.29122336399999998	45.201605100000002
      0.296886504	45.547319020000003
      0.30277045699999999	45.906731970000003
      0.30888884599999999	46.280749559999997
      0.31525650100000002	46.670366299999998
      0.321889598	47.076677459999999
      0.328805825	47.50089294
      0.33602457000000002	47.944353649999996
      0.34356714500000002	48.408550759999997
      0.351457032	48.895148689999999
      0.35972019	49.406012390000001
      0.36838539799999998	49.943240269999997
      0.37748466600000002	50.509203810000002
      0.38705371900000002	51.106595769999998
      0.39713256899999999	51.738489119999997
      0.40776619800000002	52.408409570000003
      0.41900536300000002	53.120425429999997
      0.43090757000000002	53.879259759999997
      0.44353822799999998	54.690431349999997
      0.45697202599999998	55.560433060000001
      0.47129457299999999	56.49695913
      0.486604327	57.509196449999997
      0.503014823	58.60819978
      0.520657166	59.807376320000003
      0.53968265500000001	61.123111049999999
      0.56026517099999995	62.575567960000001
      0.58260257699999995	64.189698669999999
      0.60691558199999995	65.996464399999994
      0.63344113800000001	68.034201780000004
      0.662415215	70.349880479999996
      0.69403682899999997	72.999622560000006
      0.72840307800000004	76.047204840000006
      0.76540934699999996	79.558509650000005
      0.80463064699999998	83.589963030000007
      0.84524547999999999	88.171938179999998
      0.88609953900000005	93.294734669999997
      0.92594964300000004	98.90894376
      0.963771241	104.9435902
      0.99893980100000002	111.3300564
      1.0312218310000001	118.0174305
      1.0606584889999999	124.9760964
      1.0874410889999999	132.19454709999999
      1.1118223309999999	139.6744898
      1.1340651580000001	147.42664859999999
      1.1544176930000001	155.46782519999999
      1.173103241	163.8190534
      1.1903180360000001	172.50453999999999
      1.2062325739999999	181.55112829999999
      1.220994358	190.98810510000001
      1.234730984	200.84723579999999
      1.2475531	211.16296399999999
      1.2595570490000001	221.97273730000001
      1.270827143	233.31744900000001
      1.281437594	245.2419931
      1.291454146	257.79594609999998
      1.3009354369999999	271.03439809999998
      1.309934159	285.01896390000002
      1.318498043	299.81902289999999
      1.326670706	315.51324579999999
      1.3344924010000001	332.19149570000002
      1.3420006879999999	349.95721329999998
      1.3492310569999999	368.93044570000001
      1.356217531	389.25173360000002
      1.362993272	411.08716509999999
      1.3695912379999999	434.63503709999998
      1.3760449050000001	460.1347695
      1.382389146	487.87903890000001
      1.3886613240000001	518.23060969999995
      1.394902732	551.64618570000005
      1.401160583	588.71104339999999
      1.4074908660000001	630.19074279999995
      1.4139626249999999	677.11087850000001
      1.420664664	730.8848299
      1.4277165590000001	793.52783980000004
      1.435287779	868.03580320000003
      1.4436331710000001	959.10175079999999
      1.453164339	1074.5891859999999
      1.464608755	1228.9034079999999
      1.479413587	1451.8548430000001
      1.5007295060000001	1812.597843
      1.531321148	2396.2922779999999
      1.5749716949999999	3340.7297119999998
      1.6351726849999999	4868.8615820000005
      1.6746062129999999	6056.7860730000002
      1.7053540309999999	7126.7301200000002
      1.7307497590000001	8135.9466300000004
      1.752580204	9119.3875740000003
      1.771845345	10098.25848
      1.789165838	11087.22133
      1.804957089	12097.58993
      1.819514077	13138.977849999999
      1.8330565510000001	14220.25051
      1.845754994	15350.15127
      1.8577465099999999	16537.778849999999
      1.869145125	17793.012470000001
      1.8800488470000001	19126.948680000001
      1.8905448170000001	20552.403480000001
      1.9007133519999999	22084.53774
      1.9106314310000001	23741.68173
      1.920376064	25546.46932
      1.930027954	27527.455720000002
      1.9396760099999999	29721.505959999999
      1.9494234969999999	32177.45292
      1.959397184	34961.935420000002
      1.969762051	38169.180130000001
      1.980746793	41938.394229999998
      1.9926918389999999	46487.096960000003
      2.0061495709999999	52181.595710000001
      2.022124024	59707.652569999998
      2.042772002	70576.241299999994
      2.0725625070000002	88161.987269999998
      2.1158769670000002	116616.322
      2.1803765140000002	162656.4026
      2.2792825830000001	237150.818
      2.3747656959999999	310949.48619999998
  <EndBlock>
  <BeginBlock>
    <BlockName> = "ShaftAir"
    <Mu_x> = 1
    <Mu_y> = 1
    <H_c> = 0
    <H_cAngle> = 0
    <J_re> = 0
    <J_im> = 0
    <Sigma> = 0
    <d_lam> = 0
    <Phi_h> = 0
    <Phi_hx> = 0
    <Phi_hy> = 0
    <LamType> = 0
    <LamFill> = 1
    <NStrands> = 0
    <WireD> = 0
    <BHPoints> = 3
      -100	-7.9577471545947675e-011
      0	0
      100	7.9577471545947675e-011
  <EndBlock>
  <BeginBlock>
    <BlockName> = "Copper"
    <Mu_x> = 1
    <Mu_y> = 1
    <H_c> = 0
    <H_cAngle> = 0
    <J_re> = 0
    <J_im> = 0
    <Sigma> = 58
    <d_lam> = 0
    <Phi_h> = 0
    <Phi_hx> = 0
    <Phi_hy> = 0
    <LamType> = 0
    <LamFill> = 1
    <NStrands> = 0
    <WireD> = 0
    <BHPoints> = 0
  <EndBlock>
  <BeginBlock>
    <BlockName> = "Aluminium"
    <Mu_x> = 1
    <Mu_y> = 1
    <H_c> = 0
    <H_cAngle> = 0
    <J_re> = 0
    <J_im> = 0
    <Sigma> = 29
    <d_lam> = 0
    <Phi_h> = 0
    <Phi_hx> = 0
    <Phi_hy> = 0
    <LamType> = 0
    <LamFill> = 1
    <NStrands> = 0
    <WireD> = 0
    <BHPoints> = 0
  <EndBlock>
  <BeginBlock>
    <BlockName> = "BMN-52UH"
    <Mu_x> = 1.05
    <Mu_y> = 1.05
    <H_c> = 1098926.9880154678
    <H_cAngle> = 0
    <J_re> = 0
    <J_im> = 0
    <Sigma> = 0.66600000000000004
    <d_lam> = 0
    <Phi_h> = 0
    <Phi_hx> = 0
    <Phi_hy> = 0
    <LamType> = 0
    <LamFill> = 1
    <NStrands> = 0
    <WireD> = 0
    <BHPoints> = 0
  <EndBlock>
  <BeginBlock>
    <BlockName> = "DW235"
    <Mu_x> = 1
    <Mu_y> = 1
    <H_c> = 0
    <H_cAngle> = 0
    <J_re> = 0
    <J_im> = 0
    <Sigma> = 0
    <d_lam> = 0
    <Phi_h> = 0
    <Phi_hx> = 0
    <Phi_hy> = 0
    <LamType> = 0
    <LamFill> = 1
    <NStrands> = 0
    <WireD> = 0
    <BHPoints> = 0
  <EndBlock>
  <BeginBlock>
    <BlockName> = "Air"
    <Mu_x> = 1
    <Mu_y> = 1
    <H_c> = 0
    <H_cAngle> = 0
    <J_re> = 0
    <J_im> = 0
    <Sigma> = 0
    <d_lam> = 0
    <Phi_h> = 0
    <Phi_hx> = 0
    <Phi_hy> = 0
    <LamType> = 0
    <LamFill> = 1
    <NStrands> = 0
    <WireD> = 0
    <BHPoints> = 0
  <EndBlock>
  <BeginBlock>
    <BlockName> = "BMN-52UH_1"
    <Mu_x> = 1.05
    <Mu_y> = 1.05
    <H_c> = 1098926.9880154678
    <H_cAngle> = 0
    <J_re> = 0
    <J_im> = 0
    <Sigma> = 0.66600000000000004
    <d_lam> = 0
    <Phi_h> = 0
    <Phi_hx> = 0
    <Phi_hy> = 0
    <LamType> = 0
    <LamFill> = 1
    <NStrands> = 0
    <WireD> = 0
    <BHPoints> = 0
  <EndBlock>
  <BeginBlock>
    <BlockName> = "BMN-52UH_2"
    <Mu_x> = 1.05
    <Mu_y> = 1.05
    <H_c> = 1098926.9880154678
    <H_cAngle> = 0
    <J_re> = 0
    <J_im> = 0
    <Sigma> = 0.66600000000000004
    <d_lam> = 0
    <Phi_h> = 0
    <Phi_hx> = 0
    <Phi_hy> = 0
    <LamType> = 0
    <LamFill> = 1
    <NStrands> = 0
    <WireD> = 0
    <BHPoints> = 0
  <EndBlock>
  <BeginBlock>
    <BlockName> = "BMN-52UH_3"
    <Mu_x> = 1.05
    <Mu_y> = 1.05
    <H_c> = 1098926.9880154678
    <H_cAngle> = 0
    <J_re> = 0
    <J_im> = 0
    <Sigma> = 0.66600000000000004
    <d_lam> = 0
    <Phi_h> = 0
    <Phi_hx> = 0
    <Phi_hy> = 0
    <LamType> = 0
    <LamFill> = 1
    <NStrands> = 0
    <WireD> = 0
    <BHPoints> = 0
  <EndBlock>
  <BeginBlock>
    <BlockName> = "BMN-52UH_4"
    <Mu_x> = 1.05
    <Mu_y> = 1.05
    <H_c> = 1098926.9880154678
    <H_cAngle> = 0
    <J_re> = 0
    <J_im> = 0
    <Sigma> = 0.66600000000000004
    <d_lam> = 0
    <Phi_h> = 0
    <Phi_hx> = 0
    <Phi_hy> = 0
    <LamType> = 0
    <LamFill> = 1
    <NStrands> = 0
    <WireD> = 0
    <BHPoints> = 0
  <EndBlock>
  <BeginBlock>
    <BlockName> = "BMN-52UH_5"
    <Mu_x> = 1.05
    <Mu_y> = 1.05
    <H_c> = 1098926.9880154678
    <H_cAngle> = 0
    <J_re> = 0
    <J_im> = 0
    <Sigma> = 0.66600000000000004
    <d_lam> = 0
    <Phi_h> = 0
    <Phi_hx> = 0
    <Phi_hy> = 0
    <LamType> = 0
    <LamFill> = 1
    <NStrands> = 0
    <WireD> = 0
    <BHPoints> = 0
  <EndBlock>
  <BeginBlock>
    <BlockName> = "BMN-52UH_6"
    <Mu_x> = 1.05
    <Mu_y> = 1.05
    <H_c> = 1098926.9880154678
    <H_cAngle> = 0
    <J_re> = 0
    <J_im> = 0
    <Sigma> = 0.66600000000000004
    <d_lam> = 0
    <Phi_h> = 0
    <Phi_hx> = 0
    <Phi_hy> = 0
    <LamType> = 0
    <LamFill> = 1
    <NStrands> = 0
    <WireD> = 0
    <BHPoints> = 0
  <EndBlock>
[CircuitProps]  = 6
  <BeginCircuit>
    <CircuitName> = "fase1"
    <TotalAmps_re> = 0
    <TotalAmps_im> = 0
    <CircuitType> = 1
  <EndCircuit>
  <BeginCircuit>
    <CircuitName> = "fase2"
    <TotalAmps_re> = 0
    <TotalAmps_im> = 0
    <CircuitType> = 1
  <EndCircuit>
  <BeginCircuit>
    <CircuitName> = "fase3"
    <TotalAmps_re> = 0
    <TotalAmps_im> = 0
    <CircuitType> = 1
  <EndCircuit>
  <BeginCircuit>
    <CircuitName> = "fase1n"
    <TotalAmps_re> = 0
    <TotalAmps_im> = 0
    <CircuitType> = 1
  <EndCircuit>
  <BeginCircuit>
    <CircuitName> = "fase2n"
    <TotalAmps_re> = 0
    <TotalAmps_im> = 0
    <CircuitType> = 1
  <EndCircuit>
  <BeginCircuit>
    <CircuitName> = "fase3n"
    <TotalAmps_re> = 0
    <TotalAmps_im> = 0
    <CircuitType> = 1
  <EndCircuit>
[NumPoints] = 235
1070.7014845640972	104.11250864484174	0	2
1072.2545357497711	84.388262113945856	0	2
1083.9487416773536	106.21137651673965	0	2
1087.1608488559132	110.38048384967942	0	2
1083.217896887814	113.4171065767475	0	2
1062.967871280182	110.20981760432517	0	2
1065.0447290149825	83.820838018042352	0	2
1042.1101361066026	84.534817690836249	0	2
1043.1855125360635	83.616359452830949	0	2
1055.6112913381751	84.594289453182284	0	2
1056.5297495761804	85.669665882643272	0	2
1054.035301406303	117.36463455335092	0	2
1073.225939744558	120.40413306602602	0	2
1084.353935658499	135.20023935601273	0	2
1082.584642824766	136.53090588658407	0	2
1038.5666450587432	129.55913994620593	0	2
1011.6520351268232	84.850385948216328	0	2
1012.7274115562842	83.931927710211042	0	2
1032.6300269722508	85.498297513721582	0	2
1033.5484852102561	86.573673943182555	0	2
1029.6083200404025	136.63821861346679	0	2
1068.4211646142846	142.78556927870437	0	2
1080.9880957618695	159.89777772416559	0	2
1073.0172241721648	165.75145784808973	0	2
1006.1188789200341	155.15580087669338	0	2
1070.7021994529421	104.11256492084955	0	2
1063.4923927181535	103.54514082494605	0	2
1039.6156879367252	116.22978636154389	0	2
1007.7118699569696	134.91493061850059	0	2
1073.8075869354452	64.664015583049974	0	2
1087.2200836038053	64.664715328810587	0	2
1091.0434067084047	61.047908875879813	0	2
1087.6240314738245	57.431858431759544	0	2
1067.1215867497831	57.431858431759537	0	2
1043.422648194233	80.603264270821171	0	2
1042.5041899562277	79.527887841360197	0	2
1055.8484269963444	81.581194271172507	0	2
1056.9238034258053	80.662736033167221	0	2
1059.4182515956827	48.967767362459576	0	2
1078.8481036547762	48.967767362459568	0	2
1092.1537164453187	36.094627781400582	0	2
1090.6143686491987	34.503565585990515	0	2
1046.0476810040868	34.503565585990508	0	2
1013.3889027012191	75.526884447059487	0	2
1012.4704444632139	74.451508017598499	0	2
1033.2915181171859	77.093254250570013	0	2
1034.3668945466468	76.174796012564727	0	2
1038.3070597165004	26.110251342280478	0	2
1077.6037112801862	26.110251342280478	0	2
1092.6928618255404	11.174623730134613	0	2
1085.7358422107104	4.1460930891214076	0	2
1018.0036006700029	4.146093089121436	0	2
1073.8068720466001	64.663959307042163	0	2
1066.5970653118115	64.096535211138658	0	2
1044.9986381261049	47.832919170652552	0	2
1016.4106096330675	24.38696334731425	0	2
1093.7499999999998	0	0	20
386.11000000000001	0	0	2
1080.2841225259317	171.10019613775248	0	20
381.35634518718865	60.400911296683546	0	2
0	0	0	2
1250	0	0	1
1095.7499999999998	0	0	20
1234.6104257439222	195.54308130028858	0	1
1082.259499207122	171.41306506783295	0	20
1106.8227211916062	9.2164908074796354	0	1
1106.8356291664004	7.2443256943498344	0	1
1107.2660223559712	10.915311058643262	0	1
1222.6005532619172	11.670160811871867	0	1
1222.630062737783	8.0022093116450446	0	1
1222.6485441829493	4.3341619026644613	0	1
1107.3140371969096	3.5792885050664962	0	1
1106.8485371411946	5.2721605812200334	0	1
1164.7541022670937	3.9552382200087699	0	1
1164.7060874261554	11.291260773585535	0	1
1095.7118480620047	9.1437692745090597	0	1
1095.7376640115931	5.1994390482494577	0	1
1106.6072568666807	23.703562997926063	0	1
1106.6459785793481	21.731735805135667	0	1
1107.0282831823233	25.408040339995296	0	1
1222.3430524212188	27.672507788383836	0	1
1222.4205713706494	24.005256797565067	0	1
1222.4870644895857	20.337765553747474	0	1
1107.1723194780423	18.073274776117138	0	1
1106.6847002920156	19.759908612345267	0	1
1164.6025424887789	19.201059503895699	0	1
1164.45850619306	26.535825067773857	0	1
1095.4982875279909	23.485410859474641	0	1
1095.575730953326	19.541756473893841	0	1
1106.2021810851206	38.186573704879081	0	1
1106.2667099008954	36.21542229486657	0	1
1106.6008604113492	39.896416084436012	0	1
1221.8761093911273	43.670113223144725	0	1
1222.0016245316501	40.004191106312234	0	1
1222.1161179311025	36.337884433401953	0	1
1106.8408934819713	32.564164284576364	0	1
1106.33123871667	34.24427088485406	0	1
1164.251434060199	34.443590785083956	0	1
1164.0114009895772	41.775842584943611	0	1
1095.09701900205	37.823028340192678	0	1
1095.2260766335992	33.880725520167658	0	1
1105.6075632545762	52.663041339012786	0	1
1105.6978881167777	50.692903458424759	0	1
1105.9838272797406	54.37795578336798	0	1
1221.1998041799272	59.660236008819197	0	1
1221.3732940051686	55.996270902855471	0	1
1221.5357680672828	52.331777003626719	0	1
1106.3198159968344	47.049474091126207	0	1
1105.7882129789789	48.722765577836732	0	1
1163.7008371419759	49.680220334307293	0	1
1163.3648484248818	57.008702026549066	0	1
1094.5081112394778	52.154165039718109	0	1
1094.6887609638804	48.213889278542055	0	1
1104.8235052597513	67.130485432123109	0	1
1104.9396106916793	65.16169865394312	0	1
1105.1772895129477	68.850178099514949	0	1
1220.3142526690347	75.640136320185277	0	1
1220.5356874524066	71.97875602664908	0	1
1220.7461143380879	68.316702793266614	0	1
1105.6091763065767	61.52672221250188	0	1
1105.0557161236072	63.192911875763116	0	1
1162.9508460760562	64.908337433530804	0	1
1162.5189592824274	72.231793320543872	0	1
1093.7316651465878	66.476365391554339	0	1
1093.9638760104435	62.538791835194338	0	1
1103.8501414449472	81.586427062143343	0	1
1103.9920075525338	79.619328727850458	0	1
1104.1813853070653	83.310603292086256	0	1
1219.2196065931421	91.607076083589391	0	1
1219.4889483929342	87.948907961145196	0	1
1219.7472920466196	84.289922867578255	0	1
1104.7090961756503	75.99342804676688	0	1
1104.1338736601201	77.652230393557574	0	1
1162.001589369549	80.125332823284126	0	1
1161.473878500964	87.442508068603487	0	1
1092.7678137634209	80.787175360402017	0	1
1093.051545978594	76.852978691816261	0	1
1102.6876385910425	96.028389277894547	0	1
1102.8552410662605	94.063316439661719	0	1
1102.9962853051516	97.756753641667615	0	1
1217.9160535142196	107.55831944610109	0	1
1218.2332561801009	103.90399030302437	0	1
1218.5394723359352	100.24870029753224	0	1
1103.6197298281522	90.447112798351299	0	1
1103.0228435414781	92.098243601428905	0	1
1160.8532296727039	95.328599149744505	0	1
1160.2297851497033	102.63823999306081	0	1
1091.6167222409499	95.084142862645194	0	1
1091.9519271913857	91.153997186179538	0	1
1101.3361958869168	110.45389752349847	0	1
1101.5295060119447	108.4911868864403	0	1
1101.6221925679913	112.18615387476559	0	1
1216.4038167893764	123.49113324428741	0	1
1216.7688259703034	119.8412692310643	0	1
1217.1228621597245	116.19030062877192	0	1
1102.341263921398	104.88529990278072	0	1
1101.7228161369726	106.52847624938214	0	1
1159.5059637510433	110.51553141149354	0	1
1158.7868923976366	117.8163853834784	0	1
1090.2785878127813	109.36481818650334	0	1
1090.6652080628371	105.43939691238701	0	1
1099.7960448953197	124.86048006237998	0	1
1100.015029547463	122.90046792686006	0	1
1100.059342539301	126.59633158793307	0	1
1214.68315553259	139.40278747252646	0	1
1215.0959086861185	135.75801397456607	0	1
1215.4977042468481	132.1119923501482	0	1
1100.873917513939	119.30551545102281	0	1
1100.2340141996062	120.94045579134017	0	1
1157.9600224516466	125.68352740587073	0	1
1157.1454474770085	132.97434354278099	0	1
1088.7536397613599	123.62675441177687	0	1
1089.1916090656464	119.70673014073708	0	1
1098.0674495131959	139.24566840078631	0	1
1098.3120711705615	137.28869060479391	0	1
1098.3080030053875	140.98481767140265	0	1
1212.7543645703095	155.29055575077959	0	1
1213.2147909733112	151.65149728125746	0	1
1213.6642770597484	148.01104736174972	0	1
1099.2179420280286	133.70528861337885	0	1
1098.5566928279272	135.33171280880154	0	1
1156.2156706635976	140.82998817484753	0	1
1155.3057316409568	148.1095172328713	0	1
1087.0421393786851	137.86750782911423	0	1
1087.5313826934164	133.95355223712946	0	1
1096.1507059264643	153.60699771075079	0	1
1096.4209226743906	151.6533895723567	0	1
1096.3684740492643	155.34914673215602	0	1
1210.6177743909361	171.15171579174279	0	1
1211.1257951517173	167.51899588459372	0	1
1211.6228947467353	163.88474144234868	0	1
1097.373621206541	148.08215206284768	0	1
1096.6911394223171	149.69978143396261	0	1
1154.2732072725946	155.95231845034527	0	1
1153.2680601153179	163.21931311965361	0	1
1085.1443799215353	152.08463835872891	0	1
1085.6848134173886	148.17742208194073	0	1
1094.0461425592714	167.94200725242854	0	1
1094.3419080975102	165.99210351233009	0	1
1094.2410879992331	169.68685751635644	0	1
1208.2737510881982	186.98354986729652	0	1
1208.8292791600172	183.35779097037533	0	1
1209.3739070881591	179.73035471618249	0	1
1095.3412710643545	162.43364239788954	0	1
1094.6376736357486	164.04219977223161	0	1
1152.1329651097406	171.04792709892129	0	1
1151.0327820446189	178.30114221738819	0	1
1083.0606865612251	166.27570996849471	0	1
1083.6522176377023	162.37590248829778	0	1
1249.8929094675088	16.361994464180551	0	1
1095.656124439218	14.342924347300666	0	1
1249.5716562194466	32.721185384841434	0	1
1095.3745138419667	28.683391108351998	0	1
1249.0362953009037	49.074769698835766	0	1
1094.905216460772	43.01894311799942	0	1
1248.2869184432172	65.419945303679782	0	1
1094.248312707324	57.34712405320569	0	1
1247.3236540482544	81.753911537678832	0	1
1093.4039151386996	71.665478853929244	0	1
1246.14666716641	98.073869659806178	0	1
1092.3721684380748	85.971554143786079	0	1
1244.7561594683273	114.37702332925298	0	1
1091.1532493899354	100.26289865042314	0	1
1243.1523692103417	130.66057908456685	0	1
1089.7473668497853	114.53706362553126	0	1
1241.3355711936579	146.92174682229705	0	1
1088.1547617083602	128.79160326442556	0	1
1239.3060767172631	163.15774027506447	0	1
1086.3757068503526	143.02407512512147	0	1
1237.0642335245877	179.36577748897415	0	1
1084.4105071076535	157.2320405468347	0	1
1095.083333333333	0	0	20
1081.6010403133919	171.30877542447277	0	20
1094.4166666666665	0	0	20
1080.9425814196618	171.20448578111265	0	20
[NumSegments] = 225
0	1	2.7777777777777777	0	0	2
2	25	2.7777777777777777	0	0	2
5	4	2.7777777777777777	0	0	2
6	26	2.7777777777777777	0	0	2
9	8	2.7777777777777777	0	0	2
11	10	2.7777777777777777	0	0	2
12	11	2.7777777777777777	0	0	2
15	14	2.7777777777777777	0	0	2
7	27	2.7777777777777777	0	0	2
18	17	2.7777777777777777	0	0	2
20	19	2.7777777777777777	0	0	2
21	20	2.7777777777777777	0	0	2
24	23	2.7777777777777777	0	0	2
16	28	2.7777777777777777	0	0	2
1	6	2.7777777777777777	0	0	2
25	0	2.7777777777777777	0	0	2
25	1	2.7777777777777777	0	0	2
26	5	2.7777777777777777	0	0	2
26	0	2.7777777777777777	0	0	2
10	7	2.7777777777777777	0	0	2
27	15	2.7777777777777777	0	0	2
27	11	2.7777777777777777	0	0	2
19	16	2.7777777777777777	0	0	2
28	24	2.7777777777777777	0	0	2
28	20	2.7777777777777777	0	0	2
29	1	2.7777777777777777	0	0	2
30	29	2.7777777777777777	0	0	2
33	32	2.7777777777777777	0	0	2
6	53	2.7777777777777777	0	0	2
36	34	2.7777777777777777	0	0	2
38	37	2.7777777777777777	0	0	2
39	38	2.7777777777777777	0	0	2
42	41	2.7777777777777777	0	0	2
35	54	2.7777777777777777	0	0	2
45	43	2.7777777777777777	0	0	2
47	46	2.7777777777777777	0	0	2
48	47	2.7777777777777777	0	0	2
51	50	2.7777777777777777	0	0	2
44	55	2.7777777777777777	0	0	2
52	1	2.7777777777777777	0	0	2
53	33	2.7777777777777777	0	0	2
53	52	2.7777777777777777	0	0	2
37	35	2.7777777777777777	0	0	2
54	42	2.7777777777777777	0	0	2
54	38	2.7777777777777777	0	0	2
46	44	2.7777777777777777	0	0	2
55	51	2.7777777777777777	0	0	2
55	47	2.7777777777777777	0	0	2
56	57	-1	4	0	2
59	58	-1	4	0	2
57	60	-1	2	0	2
60	59	-1	2	0	2
61	62	-1	10	0	1
64	63	-1	10	0	1
65	66	2.7777777777777777	0	0	1
67	65	2.7777777777777777	0	0	1
68	74	2.7777777777777777	0	0	1
69	68	2.7777777777777777	0	0	1
70	69	2.7777777777777777	0	0	1
71	73	2.7777777777777777	0	0	1
72	71	2.7777777777777777	0	0	1
66	72	2.7777777777777777	0	0	1
73	70	2.7777777777777777	0	0	1
74	67	2.7777777777777777	0	0	1
73	74	2.7777777777777777	0	0	1
65	75	2.7777777777777777	0	0	1
76	72	2.7777777777777777	0	0	1
77	78	2.7777777777777777	0	0	1
79	77	2.7777777777777777	0	0	1
80	86	2.7777777777777777	0	0	1
81	80	2.7777777777777777	0	0	1
82	81	2.7777777777777777	0	0	1
83	85	2.7777777777777777	0	0	1
84	83	2.7777777777777777	0	0	1
78	84	2.7777777777777777	0	0	1
85	82	2.7777777777777777	0	0	1
86	79	2.7777777777777777	0	0	1
85	86	2.7777777777777777	0	0	1
77	87	2.7777777777777777	0	0	1
88	84	2.7777777777777777	0	0	1
89	90	2.7777777777777777	0	0	1
91	89	2.7777777777777777	0	0	1
92	98	2.7777777777777777	0	0	1
93	92	2.7777777777777777	0	0	1
94	93	2.7777777777777777	0	0	1
95	97	2.7777777777777777	0	0	1
96	95	2.7777777777777777	0	0	1
90	96	2.7777777777777777	0	0	1
97	94	2.7777777777777777	0	0	1
98	91	2.7777777777777777	0	0	1
97	98	2.7777777777777777	0	0	1
89	99	2.7777777777777777	0	0	1
100	96	2.7777777777777777	0	0	1
101	102	2.7777777777777777	0	0	1
103	101	2.7777777777777777	0	0	1
104	110	2.7777777777777777	0	0	1
105	104	2.7777777777777777	0	0	1
106	105	2.7777777777777777	0	0	1
107	109	2.7777777777777777	0	0	1
108	107	2.7777777777777777	0	0	1
102	108	2.7777777777777777	0	0	1
109	106	2.7777777777777777	0	0	1
110	103	2.7777777777777777	0	0	1
109	110	2.7777777777777777	0	0	1
101	111	2.7777777777777777	0	0	1
112	108	2.7777777777777777	0	0	1
113	114	2.7777777777777777	0	0	1
115	113	2.7777777777777777	0	0	1
116	122	2.7777777777777777	0	0	1
117	116	2.7777777777777777	0	0	1
118	117	2.7777777777777777	0	0	1
119	121	2.7777777777777777	0	0	1
120	119	2.7777777777777777	0	0	1
114	120	2.7777777777777777	0	0	1
121	118	2.7777777777777777	0	0	1
122	115	2.7777777777777777	0	0	1
121	122	2.7777777777777777	0	0	1
113	123	2.7777777777777777	0	0	1
124	120	2.7777777777777777	0	0	1
125	126	2.7777777777777777	0	0	1
127	125	2.7777777777777777	0	0	1