[Format]      =  4.0
[Frequency]   =  0
[Precision]   =  1e-008
[MinAngle]    =  15
[DoSmartMesh] =  1
[Depth]       =  1500
[LengthUnits] =  millimeters
[ProblemType] =  planar
[Coordinates] =  cartesian
[ACSolver]    =  0
[PrevType]    =  0
[PrevSoln]    =  ""
[Comment]     =  "Add comments here."
[PointProps]   = 0
[BdryProps]   = 11
  <BeginBdry>
    <BdryName> = "A=0"
    <BdryType> = 0
    <A_0> = 0
    <A_1> = 0
    <A_2> = 0
    <Phi> = 0
    <c0> = 0
    <c0i> = 0
    <c1> = 0
    <c1i> = 0
    <Mu_ssd> = 0
    <Sigma_ssd> = 0
    <innerangle> = 0
    <outerangle> = 0
  <EndBdry>
  <BeginBdry>
    <BdryName> = "APr1"
    <BdryType> = 5
    <A_0> = 0
    <A_1> = 0
    <A_2> = 0
    <Phi> = 0
    <c0> = 0
    <c0i> = 0
    <c1> = 0
    <c1i> = 0
    <Mu_ssd> = 0
    <Sigma_ssd> = 0
    <innerangle> = 0
    <outerangle> = 0
  <EndBdry>
  <BeginBdry>
    <BdryName> = "APr2"
    <BdryType> = 5
    <A_0> = 0
    <A_1> = 0
    <A_2> = 0
    <Phi> = 0
    <c0> = 0
    <c0i> = 0
    <c1> = 0
    <c1i> = 0
    <Mu_ssd> = 0
    <Sigma_ssd> = 0
    <innerangle> = 0
    <outerangle> = 0
  <EndBdry>
  <BeginBdry>
    <BdryName> = "APr3"
    <BdryType> = 5
    <A_0> = 0
    <A_1> = 0
    <A_2> = 0
    <Phi> = 0
    <c0> = 0
    <c0i> = 0
    <c1> = 0
    <c1i> = 0
    <Mu_ssd> = 0
    <Sigma_ssd> = 0
    <innerangle> = 0
    <outerangle> = 0
  <EndBdry>
  <BeginBdry>
    <BdryName> = "APg1"
    <BdryType> = 5
    <A_0> = 0
    <A_1> = 0
    <A_2> = 0
    <Phi> = 0
    <c0> = 0
    <c0i> = 0
    <c1> = 0
    <c1i> = 0
    <Mu_ssd> = 0
    <Sigma_ssd> = 0
    <innerangle> = 0
    <outerangle> = 0
  <EndBdry>
  <BeginBdry>
    <BdryName> = "APg2"
    <BdryType> = 5
    <A_0> = 0
    <A_1> = 0
    <A_2> = 0
    <Phi> = 0
    <c0> = 0
    <c0i> = 0
    <c1> = 0
    <c1i> = 0
    <Mu_ssd> = 0
    <Sigma_ssd> = 0
    <innerangle> = 0
    <outerangle> = 0
  <EndBdry>
  <BeginBdry>
    <BdryName> = "APg3"
    <BdryType> = 5
    <A_0> = 0
    <A_1> = 0
    <A_2> = 0
    <Phi> = 0
    <c0> = 0
    <c0i> = 0
    <c1> = 0
    <c1i> = 0
    <Mu_ssd> = 0
    <Sigma_ssd> = 0
    <innerangle> = 0
    <outerangle> = 0
  <EndBdry>
  <BeginBdry>
    <BdryName> = "APs1"
    <BdryType> = 5
    <A_0> = 0
    <A_1> = 0
    <A_2> = 0
    <Phi> = 0
    <c0> = 0
    <c0i> = 0
    <c1> = 0
    <c1i> = 0
    <Mu_ssd> = 0
    <Sigma_ssd> = 0
    <innerangle> = 0
    <outerangle> = 0
  <EndBdry>
  <BeginBdry>
    <BdryName> = "APs2"
    <BdryType> = 5
    <A_0> = 0
    <A_1> = 0
    <A_2> = 0
    <Phi> = 0
    <c0> = 0
    <c0i> = 0
    <c1> = 0
    <c1i> = 0
    <Mu_ssd> = 0
    <Sigma_ssd> = 0
    <innerangle> = 0
    <outerangle> = 0
  <EndBdry>
  <BeginBdry>
    <BdryName> = "APs3"
    <BdryType> = 5
    <A_0> = 0
    <A_1> = 0
    <A_2> = 0
    <Phi> = 0
    <c0> = 0
    <c0i> = 0
    <c1> = 0
    <c1i> = 0
    <Mu_ssd> = 0
    <Sigma_ssd> = 0
    <innerangle> = 0
    <outerangle> = 0
  <EndBdry>
  <BeginBdry>
    <BdryName> = "AGap"
    <BdryType> = 7
    <A_0> = 0
    <A_1> = 0
    <A_2> = 0
    <Phi> = 0
    <c0> = 0
    <c0i> = 0
    <c1> = 0
    <c1i> = 0
    <Mu_ssd> = 0
    <Sigma_ssd> = 0
    <innerangle> = 0
    <outerangle> = 0
  <EndBdry>
[BlockProps]  = 13
  <BeginBlock>
    <BlockName> = "M270-35A"
    <Mu_x> = 1
    <Mu_y> = 1
    <H_c> = 0
    <H_cAngle> = 0
    <J_re> = 0
    <J_im> = 0
    <Sigma> = 0
    <d_lam> = 0
    <Phi_h> = 0
    <Phi_hx> = 0
    <Phi_hy> = 0
    <LamType> = 0
    <LamFill> = 1
    <NStrands> = 0
    <WireD> = 0
    <BHPoints> = 200
      0	0
      0.0045422769999999999	3.2767874890000002
      0.0090353559999999996	6.114592773
      0.013222249	8.4602422570000009
      0.017196487	10.462328400000001
      0.020991169	12.199266809999999
      0.024640190999999999	13.72982376
      0.028168996000000002	15.09561901
      0.031597466999999997	16.327217480000002
      0.034941272000000002	17.447599879999999
      0.038212956999999999	18.47443998
      0.041422729999999998	19.421601849999998
      0.044579012000000001	20.300151339999999
      0.047688851999999997	21.119056130000001
      0.050758219	21.885681389999998
      0.053792226999999998	22.60614816
      0.056795300999999999	23.285597330000002
      0.059771310000000001	23.928387470000001
      0.062723663999999998	24.538245379999999
      0.065655396000000005	25.11838217
      0.068569221	25.67158405
      0.071467592999999996	26.200284
      0.074352739000000001	26.70661905
      0.077226698999999996	27.19247648
      0.080091349000000006	27.65953137
      0.082948429000000004	28.109277410000001
      0.085799557999999998	28.54305239
      0.088646256000000007	28.96205934
      0.091489953999999998	29.36738437
      0.094332005999999996	29.760011540000001
      0.097173704999999999	30.140835630000002
      0.100016285	30.510672870000001
      0.102860934	30.870270300000001
      0.105708802	31.220313650000001
      0.108561001	31.561434299999998
      0.11141862	31.894215259999999
      0.114282722	32.21919639
      0.117154355	32.536878999999999
      0.120034552	32.847729870000002
      0.12292433699999999	33.152184810000001
      0.12582473199999999	33.45065185
      0.12873675200000001	33.743513989999997
      0.13166142	34.031131799999997
      0.13459976100000001	34.313845620000002
      0.137552811	34.591977620000002
      0.14052161499999999	34.865833639999998
      0.14350723800000001	35.135704879999999
      0.14651076099999999	35.401869419999997
      0.14953328699999999	35.664593680000003
      0.15257594699999999	35.924133650000002
      0.155639899	36.180736189999998
      0.158726334	36.434640119999997
      0.161836481	36.686077320000003
      0.16497160599999999	36.93527375
      0.16813302299999999	37.182450420000002
      0.17132209400000001	37.427824389999998
      0.17454023399999999	37.671609650000001
      0.17778891699999999	37.914018050000003
      0.18106968000000001	38.155260249999998
      0.18438413100000001	38.395546590000002
      0.18773395400000001	38.635088090000004
      0.191120915	38.87409736
      0.19454686800000001	39.112789630000002
      0.19801376800000001	39.351383830000003
      0.20152367299999999	39.590103640000002
      0.20507876	39.829178749999997
      0.208681327	40.068846100000002
      0.21233381500000001	40.309351300000003
      0.216038808	40.550950149999998
      0.21979905799999999	40.793910310000001
      0.22361749	41.038513199999997
      0.227497227	41.285056060000002
      0.2314416	41.53385428
      0.23545417299999999	41.785244059999997
      0.23953876299999999	42.039585369999998
      0.24369946200000001	42.297265359999997
      0.247940667	42.558702250000003
      0.25226710400000002	42.824349750000003
      0.25668386300000001	43.0947022
      0.26119642799999998	43.370300520000001
      0.26581071499999998	43.651739030000002
      0.27054201700000002	43.94020278
      0.275438138	44.23873004
      0.28051031599999998	44.548036490000001
      0.28576849199999999	44.868763260000001
      0.29122336399999998	45.201605100000002
      0.296886504	45.547319020000003
      0.30277045699999999	45.906731970000003
      0.30888884599999999	46.280749559999997
      0.31525650100000002	46.670366299999998
      0.321889598	47.076677459999999
      0.328805825	47.50089294
      0.33602457000000002	47.944353649999996
      0.34356714500000002	48.408550759999997
      0.351457032	48.895148689999999
      0.35972019	49.406012390000001
      0.36838539799999998	49.943240269999997
      0.37748466600000002	50.509203810000002
      0.38705371900000002	51.106595769999998
      0.39713256899999999	51.738489119999997
      0.40776619800000002	52.408409570000003
      0.41900536300000002	53.120425429999997
      0.43090757000000002	53.879259759999997
      0.44353822799999998	54.690431349999997
      0.45697202599999998	55.560433060000001
      0.47129457299999999	56.49695913
      0.486604327	57.509196449999997
      0.503014823	58.60819978
      0.520657166	59.807376320000003
      0.53968265500000001	61.123111049999999
      0.56026517099999995	62.575567960000001
      0.58260257699999995	64.189698669999999
      0.60691558199999995	65.996464399999994
      0.63344113800000001	68.034201780000004
      0.662415215	70.349880479999996
      0.69403682899999997	72.999622560000006
      0.72840307800000004	76.047204840000006
      0.76540934699999996	79.558509650000005
      0.80463064699999998	83.589963030000007
      0.84524547999999999	88.171938179999998
      0.88609953900000005	93.294734669999997
      0.92594964300000004	98.90894376
      0.963771241	104.9435902
      0.99893980100000002	111.3300564
      1.0312218310000001	118.0174305
      1.0606584889999999	124.9760964
      1.0874410889999999	132.19454709999999
      1.1118223309999999	139.6744898
      1.1340651580000001	147.42664859999999
      1.1544176930000001	155.46782519999999
      1.173103241	163.8190534
      1.1903180360000001	172.50453999999999
      1.2062325739999999	181.55112829999999
      1.220994358	190.98810510000001
      1.234730984	200.84723579999999
      1.2475531	211.16296399999999
      1.2595570490000001	221.97273730000001
      1.270827143	233.31744900000001
      1.281437594	245.2419931
      1.291454146	257.79594609999998
      1.3009354369999999	271.03439809999998
      1.309934159	285.01896390000002
      1.318498043	299.81902289999999
      1.326670706	315.51324579999999
      1.3344924010000001	332.19149570000002
      1.3420006879999999	349.95721329999998
      1.3492310569999999	368.93044570000001
      1.356217531	389.25173360000002
      1.362993272	411.08716509999999
      1.3695912379999999	434.63503709999998
      1.3760449050000001	460.1347695
      1.382389146	487.87903890000001
      1.3886613240000001	518.23060969999995
      1.394902732	551.64618570000005
      1.401160583	588.71104339999999
      1.4074908660000001	630.19074279999995
      1.4139626249999999	677.11087850000001
      1.420664664	730.8848299
      1.4277165590000001	793.52783980000004
      1.435287779	868.03580320000003
      1.4436331710000001	959.10175079999999
      1.453164339	1074.5891859999999
      1.464608755	1228.9034079999999
      1.479413587	1451.8548430000001
      1.5007295060000001	1812.597843
      1.531321148	2396.2922779999999
      1.5749716949999999	3340.7297119999998
      1.6351726849999999	4868.8615820000005
      1.6746062129999999	6056.7860730000002
      1.7053540309999999	7126.7301200000002
      1.7307497590000001	8135.9466300000004
      1.752580204	9119.3875740000003
      1.771845345	10098.25848
      1.789165838	11087.22133
      1.804957089	12097.58993
      1.819514077	13138.977849999999
      1.8330565510000001	14220.25051
      1.845754994	15350.15127
      1.8577465099999999	16537.778849999999
      1.869145125	17793.012470000001
      1.8800488470000001	19126.948680000001
      1.8905448170000001	20552.403480000001
      1.9007133519999999	22084.53774
      1.9106314310000001	23741.68173
      1.920376064	25546.46932
      1.930027954	27527.455720000002
      1.9396760099999999	29721.505959999999
      1.9494234969999999	32177.45292
      1.959397184	34961.935420000002
      1.969762051	38169.180130000001
      1.980746793	41938.394229999998
      1.9926918389999999	46487.096960000003
      2.0061495709999999	52181.595710000001
      2.022124024	59707.652569999998
      2.042772002	70576.241299999994
      2.0725625070000002	88161.987269999998
      2.1158769670000002	116616.322
      2.1803765140000002	162656.4026
      2.2792825830000001	237150.818
      2.3747656959999999	310949.48619999998
  <EndBlock>
  <BeginBlock>
    <BlockName> = "ShaftAir"
    <Mu_x> = 1
    <Mu_y> = 1
    <H_c> = 0
    <H_cAngle> = 0
    <J_re> = 0
    <J_im> = 0
    <Sigma> = 0
    <d_lam> = 0
    <Phi_h> = 0
    <Phi_hx> = 0
    <Phi_hy> = 0
    <LamType> = 0
    <LamFill> = 1
    <NStrands> = 0
    <WireD> = 0
    <BHPoints> = 3
      -100	-7.9577471545947675e-011
      0	0
      100	7.9577471545947675e-011
  <EndBlock>
  <BeginBlock>
    <BlockName> = "Copper"
    <Mu_x> = 1
    <Mu_y> = 1
    <H_c> = 0
    <H_cAngle> = 0
    <J_re> = 0
    <J_im> = 0
    <Sigma> = 58
    <d_lam> = 0
    <Phi_h> = 0
    <Phi_hx> = 0
    <Phi_hy> = 0
    <LamType> = 0
    <LamFill> = 1
    <NStrands> = 0
    <WireD> = 0
    <BHPoints> = 0
  <EndBlock>
  <BeginBlock>
    <BlockName> = "Aluminium"
    <Mu_x> = 1
    <Mu_y> = 1
    <H_c> = 0
    <H_cAngle> = 0
    <J_re> = 0
    <J_im> = 0
    <Sigma> = 29
    <d_lam> = 0
    <Phi_h> = 0
    <Phi_hx> = 0
    <Phi_hy> = 0
    <LamType> = 0
    <LamFill> = 1
    <NStrands> = 0
    <WireD> = 0
    <BHPoints> = 0
  <EndBlock>
  <BeginBlock>
    <BlockName> = "BMN-52UH"
    <Mu_x> = 1.05
    <Mu_y> = 1.05
    <H_c> = 1098926.9880154678
    <H_cAngle> = 0
    <J_re> = 0
    <J_im> = 0
    <Sigma> = 0.66600000000000004
    <d_lam> = 0
    <Phi_h> = 0
    <Phi_hx> = 0
    <Phi_hy> = 0
    <LamType> = 0
    <LamFill> = 1
    <NStrands> = 0
    <WireD> = 0
    <BHPoints> = 0
  <EndBlock>
  <BeginBlock>
    <BlockName> = "DW235"
    <Mu_x> = 1
    <Mu_y> = 1
    <H_c> = 0
    <H_cAngle> = 0
    <J_re> = 0
    <J_im> = 0
    <Sigma> = 0
    <d_lam> = 0
    <Phi_h> = 0
    <Phi_hx> = 0
    <Phi_hy> = 0
    <LamType> = 0
    <LamFill> = 1
    <NStrands> = 0
    <WireD> = 0
    <BHPoints> = 0
  <EndBlock>
  <BeginBlock>
    <BlockName> = "Air"
    <Mu_x> = 1
    <Mu_y> = 1
    <H_c> = 0
    <H_cAngle> = 0
    <J_re> = 0
    <J_im> = 0
    <Sigma> = 0
    <d_lam> = 0
    <Phi_h> = 0
    <Phi_hx> = 0
    <Phi_hy> = 0
    <LamType> = 0
    <LamFill> = 1
    <NStrands> = 0
    <WireD> = 0
    <BHPoints> = 0
  <EndBlock>
  <BeginBlock>
    <BlockName> = "BMN-52UH_1"
    <Mu_x> = 1.05
    <Mu_y> = 1.05
    <H_c> = 1098926.9880154678
    <H_cAngle> = 0
    <J_re> = 0
    <J_im> = 0
    <Sigma> = 0.66600000000000004
    <d_lam> = 0
    <Phi_h> = 0
    <Phi_hx> = 0
    <Phi_hy> = 0
    <LamType> = 0
    <LamFill> = 1
    <NStrands> = 0
    <WireD> = 0
    <BHPoints> = 0
  <EndBlock>
  <BeginBlock>
    <BlockName> = "BMN-52UH_2"
    <Mu_x> = 1.05
    <Mu_y> = 1.05
    <H_c> = 1098926.9880154678
    <H_cAngle> = 0
    <J_re> = 0
    <J_im> = 0
    <Sigma> = 0.66600000000000004
    <d_lam> = 0
    <Phi_h> = 0
    <Phi_hx> = 0
    <Phi_hy> = 0
    <LamType> = 0
    <LamFill> = 1
    <NStrands> = 0
    <WireD> = 0
    <BHPoints> = 0
  <EndBlock>
  <BeginBlock>
    <BlockName> = "BMN-52UH_3"
    <Mu_x> = 1.05
    <Mu_y> = 1.05
    <H_c> = 1098926.9880154678
    <H_cAngle> = 0
    <J_re> = 0
    <J_im> = 0
    <Sigma> = 0.66600000000000004
    <d_lam> = 0
    <Phi_h> = 0
    <Phi_hx> = 0
    <Phi_hy> = 0
    <LamType> = 0
    <LamFill> = 1
    <NStrands> = 0
    <WireD> = 0
    <BHPoints> = 0
  <EndBlock>
  <BeginBlock>
    <BlockName> = "BMN-52UH_4"
    <Mu_x> = 1.05
    <Mu_y> = 1.05
    <H_c> = 1098926.9880154678
    <H_cAngle> = 0
    <J_re> = 0
    <J_im> = 0
    <Sigma> = 0.66600000000000004
    <d_lam> = 0
    <Phi_h> = 0
    <Phi_hx> = 0
    <Phi_hy> = 0
    <LamType> = 0
    <LamFill> = 1
    <NStrands> = 0
    <WireD> = 0
    <BHPoints> = 0
  <EndBlock>
  <BeginBlock>
    <BlockName> = "BMN-52UH_5"
    <Mu_x> = 1.05
    <Mu_y> = 1.05
    <H_c> = 1098926.9880154678
    <H_cAngle> = 0
    <J_re> = 0
    <J_im> = 0
    <Sigma> = 0.66600000000000004
    <d_lam> = 0
    <Phi_h> = 0
    <Phi_hx> = 0
    <Phi_hy> = 0
    <LamType> = 0
    <LamFill> = 1
    <NStrands> = 0
    <WireD> = 0
    <BHPoints> = 0
  <EndBlock>
  <BeginBlock>
    <BlockName> = "BMN-52UH_6"
    <Mu_x> = 1.05
    <Mu_y> = 1.05
    <H_c> = 1098926.9880154678
    <H_cAngle> = 0
    <J_re> = 0
    <J_im> = 0
    <Sigma> = 0.66600000000000004
    <d_lam> = 0
    <Phi_h> = 0
    <Phi_hx> = 0
    <Phi_hy> = 0
    <LamType> = 0
    <LamFill> = 1
    <NStrands> = 0
    <WireD> = 0
    <BHPoints> = 0
  <EndBlock>
[CircuitProps]  = 6
  <BeginCircuit>
    <CircuitName> = "fase1"
    <TotalAmps_re> = 0
    <TotalAmps_im> = 0
    <CircuitType> = 1
  <EndCircuit>
  <BeginCircuit>
    <CircuitName> = "fase2"
    <TotalAmps_re> = 0
    <TotalAmps_im> = 0
    <CircuitType> = 1
  <EndCircuit>
  <BeginCircuit>
    <CircuitName> = "fase3"
    <TotalAmps_re> = 0
    <TotalAmps_im> = 0
    <CircuitType> = 1
  <EndCircuit>
  <BeginCircuit>
    <CircuitName> = "fase1n"
    <TotalAmps_re> = 0
    <TotalAmps_im> = 0
    <CircuitType> = 1
  <EndCircuit>
  <BeginCircuit>
    <CircuitName> = "fase2n"
    <TotalAmps_re> = 0
    <TotalAmps_im> = 0
    <CircuitType> = 1
  <EndCircuit>
  <BeginCircuit>
    <CircuitName> = "fase3n"
    <TotalAmps_re> = 0
    <TotalAmps_im> = 0
    <CircuitType> = 1
  <EndCircuit>
[NumPoints] = 233
1131.7508378268662	110.17354279286394	0	2
1133.4014420178146	89.200628004285818	0	2
1146.0566333169809	112.43935820496304	0	2
1149.3402300879272	116.70303338572856	0	2
1145.3084213590744	119.80806216066142	0	2
1123.8422670048722	116.408157317351	0	2
1126.0292093049254	88.620420706673173	0	2
1101.6415230095683	89.495500489001159	0	2
1102.7168994390292	88.577042250995888	0	2
1116.0346250214093	89.625169985351079	0	2
1116.9530832594148	90.700546414812052	0	2
1114.3306418264142	124.02182417114395	0	2
1134.5569752069571	127.22536066343869	0	2
1146.3732654175128	142.93669520451658	0	2
1144.4945251724628	144.3496712892931	0	2
1097.9051485807367	136.97063895274351	0	2
1069.3907938884438	90.165252621714544	0	2
1070.4661703179049	89.246794383709258	0	2
1091.723223437243	90.919760746262725	0	2
1092.641681675248	91.995137175723698	0	2
1088.5183094515212	144.38754885385413	0	2
1129.470912644266	150.87380399036988	0	2
1142.815171359716	169.04451073626393	0	2
1134.3512409180628	175.26027763747234	0	2
1063.5758937821588	164.0505638925774	0	2
1124.3786051139771	109.5933354952513	0	2
1099.0190815765677	122.81677824533304	0	2
1065.2674216647169	142.55766429984499	0	2
1135.0520462087629	68.227713215707695	0	2
1149.5361652391593	68.227713215707695	0	2
1153.4463212310472	64.530198655851564	0	2
1149.9498842733908	60.832684095995319	0	2
1128.2161516049787	60.832684095995347	0	2
1102.9971267725307	85.016416378855084	0	2
1102.0786685345254	83.94103994939411	0	2
1116.3148523549107	86.064544113210275	0	2
1117.3902287843719	85.146085875205003	0	2
1120.0126702173725	51.824808118873115	0	2
1140.4911273877335	51.824808118873136	0	2
1154.6197336717896	38.155381215309227	0	2
1152.9851619946837	36.465901485651777	0	2
1105.815042963357	36.465901485651749	0	2
1071.2482299604944	79.309784449064878	0	2
1070.3297717224893	78.23440801960389	0	2
1092.5052830798325	80.982750811618345	0	2
1093.5806595092936	80.064292573613045	0	2
1097.7040317330204	27.671880895482609	0	2
1139.1671142759089	27.671880895482595	0	2
1155.1896078122411	11.812387675699497	0	2
1147.8022425694169	4.3490967487410046	0	2
1076.1446718287743	4.349096748741033	0	2
1127.6798134958738	67.64750591809505	0	2
1104.701109967526	50.619762193062222	0	2
1074.4531439462162	25.841996341473454	0	2
1156.25	0	0	20
386.11000000000001	0	0	2
1142.014643813128	180.87735020276693	0	20
381.35634518718865	60.400911296683546	0	2
0	0	0	2
1250	0	0	1
1158.25	0	0	20
1234.6104257439222	195.54308130028858	0	1
1143.9900204943183	181.1902191328474	0	20
1169.3205450600758	9.7380382221789894	0	1
1169.3341892871397	7.6533836547296694	0	1
1169.7879475345003	11.529219596887787	0	1
1221.0361245865317	11.864642920842607	0	1
1221.0675962039329	7.9919828460710578	0	1
1221.0868021290423	4.1192256993765302	0	1
1169.8386417849142	3.7838192767845826	0	1
1169.3478335142036	5.5687290872803494	0	1
1195.2231692290582	3.9499629927589566	0	1
1195.1724749786442	11.69536331286216	0	1
1158.2096719304743	9.6653166892084137	0	1
1158.2369603846021	5.4960075543097737	0	1
1169.0928995502304	25.043136968920514	0	1
1169.1338298935541	22.958839596299498	0	1
1169.5368161413612	26.840282998134811	0	1
1220.776212082081	27.846495496939482	0	1
1220.8583725573965	23.974579153095341	0	1
1220.9282696618839	20.102405192693109	0	1
1169.6888902064038	19.09620981250303	0	1
1169.174760236878	20.874542223678478	0	1
1195.0690681424501	19.594612492555729	0	1
1194.9169940774075	27.33868567818751	0	1
1157.9839302115408	24.824984830469091	0	1
1158.0657908981882	20.656390085227052	0	1
1168.6649359905539	40.343944703064835	0	1
1168.7331454369339	38.260361658896926	0	1
1169.0852906355683	42.146747455064258	0	1
1220.3071258582634	43.823576719387106	0	1
1220.4399611137185	39.953067539403207	0	1
1220.560537421075	36.08214024236738	0	1
1169.3387184581318	34.405328310977659	0	1
1168.8013548833137	36.176778614729017	0	1
1194.7101981232486	35.235904556375246	0	1
1194.4567703006851	42.977323700461845	0	1
1157.5597739074831	39.98039933837844	0	1
1157.6961928002429	35.813233250042614	0	1
1168.036727710399	55.637839709975495	0	1
1168.1322045724974	53.555328005488995	0	1
1168.4334483836924	57.445990283789335	0	1
1219.6289462905879	59.79314899756826	0	1
1219.8124335655457	55.924710173267165	0	1
1219.9836684156417	52.055692803062499	0	1
1168.7881865402239	49.708551633565321	0	1
1168.227681434596	51.472816301002489	0	1
1194.1466206619834	50.871159129343965	0	1
1193.7918825054519	58.608597779567972	0	1
1156.9372756953003	55.128963410680818	0	1
1157.1282294194975	50.963940001707812	0	1
1167.20838235002	70.922201459476213	0	1
1167.3311102683688	68.841117922330881	0	1
1167.5814010755478	72.735390037812039	0	1
1218.7417895816327	75.752476027484633	0	1
1218.9758974364931	71.886770395944112	0	1
1219.1977614891184	68.02032588877924	0	1
1168.0373887834903	65.003257651730891	0	1
1167.4538381867173	66.760034385185563	0	1
1193.3784323247512	66.497697191081301	0	1
1192.9224446168087	74.229829577162448	0	1
1156.1165422368565	70.268081418907443	0	1
1156.3619980735537	66.105914344616792	0	1
1166.1800418421308	86.194411054865355	0	1
1166.3299997879324	84.115112268011842	0	1
1166.5292947050546	88.012326957194588	0	1
1217.6458077411326	91.698823260608521	0	1
1217.9304960627196	87.836513190587823	0	1
1218.2029513026114	83.973304041824534	0	1
1167.0864538332619	80.286825696335512	0	1
1166.4799577337337	82.035813481158328	0	1
1192.4057647366694	82.112841214736022	0	1
1191.8486056084621	89.838342475595098	0	1
1155.0977141606047	85.395159353124029	0	1
1155.3976300522077	81.236561779417002	0	1
1164.9518823875833	101.45185168165028	0	1
1165.1290446663158	99.374693922231458	0	1
1165.2773095452226	103.27418341744172	0	1
1216.3411885599337	107.62945837243353	0	1
1216.6764085683694	103.77120565087993	0	1
1216.9994083117244	99.911893801518019	0	1
1165.9355446273464	95.556637006674791	0	1
1165.306206945048	97.297536162812634	0	1
1191.2287845593214	97.713915625766674	0	1
1190.5705494771978	105.4314620365336	0	1
1153.8809660374907	100.50760526640092	0	1
1154.2352905949556	96.353289747563267	0	1
1163.5241144251775	116.69190905592509	0	1
1163.7284506809963	114.61724823422979	0	1
1163.8256601172643	118.51834437801719	0	1
1214.8281555778165	123.54165173064439	0	1
1215.2138498348781	119.68811744929938	0	1
1215.5873387373535	115.83336417255643	0	1
1164.5848583681116	110.81007517918987	0	1
1163.9327869368149	112.54258741253449	0	1
1189.847693462202	113.29824726038744	0	1
1189.0884952113547	121.00651645921477	0	1
1152.4665063510417	115.60282971892998	0	1
1152.8751788626794	111.45350807553937	0	1
1161.896982595603	131.91197187231478	0	1
1162.1284578165428	129.84016347079444	0	1
1162.1745951538355	133.74219783041764	0	1
1213.1069680451935	139.43267686282539	0	1
1213.5430704641556	135.58452130495002	0	1
1213.9669845303506	131.73498709295566	0	1
1163.0346264886946	126.04452661577484	0	1
1162.3599330374825	127.76835506927407	0	1
1188.2627280881602	128.86316582360112	0	1
1187.4026967533011	136.56083703824393	0	1
1150.8545774616432	130.6782462217117	0	1
1151.3175279035227	126.53462941867097	0	1
1160.0707656995228	147.10943225140886	0	1
1160.3293402234963	145.04083126376736	0	1
1160.3243975564185	148.94313524572655	0	1
1211.1779208786879	155.29981092362729	0	1
1211.6643567356457	151.45769345086609	0	1
1212.1386233300675	147.61403790149012	0	1
1161.2851146133476	141.2573809716032	0	1
1160.5879147474693	142.97223027612583	0	1
1186.4741600128539	144.40600434674036	0	1
1185.5134429559248	152.09175862086369	0	1
1149.0454555650124	145.73127167973681	0	1
1149.5626046129587	141.59406970445374	0	1
1158.0457766498009	162.28168618660806	0	1
1158.3314061713941	160.2166470569754	0	1
1158.2753843468461	164.11855202157241	0	1
1209.0413446106004	171.14033516131303	0	1
1209.5780305572746	167.30491410071565	0	1
1210.1025684167832	163.46779580454927	0	1
1159.3366225119232	156.446031602397	0	1
1158.6170356929874	158.15160792734278	0	1
1184.4822956982148	159.92409964443885	0	1
1183.4210575331379	167.59662006361427	0	1
1147.0394506448722	160.75932683458618	0	1
1147.6107096880585	156.6292485753209	0	1
1155.8223624178859	177.42613399030759	0	1
1156.1349979959509	175.36501055250784	0	1
1156.0279066129842	179.26584792841405	0	1
1206.697605332276	186.95153538360177	0	1
1207.2844494102922	183.12346791482213	0	1
1207.859168658026	179.29354434233181	0	1
1157.1894840485131	171.60787601106216	0	1
1156.447633574016	173.30388711470809	0	1
1182.2874764399396	175.41479277095485	0	1
1181.1258990044109	183.07276468830673	0	1
1144.8369064198396	175.75983670637376	0	1
1145.4621775759697	171.63758983077426	0	1
1249.8929094675088	16.361994464180551	0	1
1158.1507699125937	15.161024070509697	0	1
1249.5716562194466	32.721185384841434	0	1
1157.8530966529393	30.319450377594077	0	1
1249.0362953009037	49.074769698835766	0	1
1157.3570312258173	45.472681602941215	0	1
1248.2869184432172	65.419945303679782	0	1
1156.6626586294851	60.61812131838969	0	1
1247.3236540482544	81.753911537678832	0	1
1155.7700978411124	75.753174430813203	0	1
1246.14666716641	98.073869659806178	0	1
1154.6795017963955	90.8752476267764	0	1
1244.7561594683273	114.37702332925298	0	1
1153.391057363352	105.98174981688581	0	1
1243.1523692103417	130.66057908456685	0	1
1151.9049853103024	121.07009257975963	0	1
1241.3355711936579	146.92174682229705	0	1
1150.2215402680433	136.13769060554046	0	1
1239.3060767172631	163.15774027506447	0	1
1148.3410106862159	151.18196213887472	0	1
1237.0642335245877	179.36577748897415	0	1
1146.263718783883	166.20032942128344	0	1
1157.5833333333333	0	0	20
1143.3315616005882	181.08592948948723	0	20
1156.9166666666667	0	0	20
1142.6731027068581	180.98163984612711	0	20
[NumSegments] = 222
0	1	2.7777777777777777	0	0	2
2	0	2.7777777777777777	0	0	2
5	4	2.7777777777777777	0	0	2
6	25	2.7777777777777777	0	0	2
9	8	2.7777777777777777	0	0	2
11	10	2.7777777777777777	0	0	2
12	11	2.7777777777777777	0	0	2
15	14	2.7777777777777777	0	0	2
7	26	2.7777777777777777	0	0	2
18	17	2.7777777777777777	0	0	2
20	19	2.7777777777777777	0	0	2
21	20	2.7777777777777777	0	0	2
24	23	2.7777777777777777	0	0	2
16	27	2.7777777777777777	0	0	2
1	6	2.7777777777777777	0	0	2
25	5	2.7777777777777777	0	0	2
25	0	2.7777777777777777	0	0	2
10	7	2.7777777777777777	0	0	2
26	15	2.7777777777777777	0	0	2
26	11	2.7777777777777777	0	0	2
19	16	2.7777777777777777	0	0	2
27	24	2.7777777777777777	0	0	2
27	20	2.7777777777777777	0	0	2
28	1	2.7777777777777777	0	0	2
29	28	2.7777777777777777	0	0	2
32	31	2.7777777777777777	0	0	2
6	51	2.7777777777777777	0	0	2
35	33	2.7777777777777777	0	0	2
37	36	2.7777777777777777	0	0	2
38	37	2.7777777777777777	0	0	2
41	40	2.7777777777777777	0	0	2
34	52	2.7777777777777777	0	0	2
44	42	2.7777777777777777	0	0	2
46	45	2.7777777777777777	0	0	2
47	46	2.7777777777777777	0	0	2
50	49	2.7777777777777777	0	0	2
43	53	2.7777777777777777	0	0	2
51	32	2.7777777777777777	0	0	2
51	28	2.7777777777777777	0	0	2
36	34	2.7777777777777777	0	0	2
52	41	2.7777777777777777	0	0	2
52	37	2.7777777777777777	0	0	2
45	43	2.7777777777777777	0	0	2
53	50	2.7777777777777777	0	0	2
53	46	2.7777777777777777	0	0	2
54	55	-1	4	0	2
57	56	-1	4	0	2
55	58	-1	2	0	2
58	57	-1	2	0	2
59	60	-1	10	0	1
62	61	-1	10	0	1
63	64	2.7777777777777777	0	0	1
65	63	2.7777777777777777	0	0	1
66	72	2.7777777777777777	0	0	1
67	66	2.7777777777777777	0	0	1
68	67	2.7777777777777777	0	0	1
69	71	2.7777777777777777	0	0	1
70	69	2.7777777777777777	0	0	1
64	70	2.7777777777777777	0	0	1
71	68	2.7777777777777777	0	0	1
72	65	2.7777777777777777	0	0	1
71	72	2.7777777777777777	0	0	1
63	73	2.7777777777777777	0	0	1
74	70	2.7777777777777777	0	0	1
75	76	2.7777777777777777	0	0	1
77	75	2.7777777777777777	0	0	1
78	84	2.7777777777777777	0	0	1
79	78	2.7777777777777777	0	0	1
80	79	2.7777777777777777	0	0	1
81	83	2.7777777777777777	0	0	1
82	81	2.7777777777777777	0	0	1
76	82	2.7777777777777777	0	0	1
83	80	2.7777777777777777	0	0	1
84	77	2.7777777777777777	0	0	1
83	84	2.7777777777777777	0	0	1
75	85	2.7777777777777777	0	0	1
86	82	2.7777777777777777	0	0	1
87	88	2.7777777777777777	0	0	1
89	87	2.7777777777777777	0	0	1
90	96	2.7777777777777777	0	0	1
91	90	2.7777777777777777	0	0	1
92	91	2.7777777777777777	0	0	1
93	95	2.7777777777777777	0	0	1
94	93	2.7777777777777777	0	0	1
88	94	2.7777777777777777	0	0	1
95	92	2.7777777777777777	0	0	1
96	89	2.7777777777777777	0	0	1
95	96	2.7777777777777777	0	0	1
87	97	2.7777777777777777	0	0	1
98	94	2.7777777777777777	0	0	1
99	100	2.7777777777777777	0	0	1
101	99	2.7777777777777777	0	0	1
102	108	2.7777777777777777	0	0	1
103	102	2.7777777777777777	0	0	1
104	103	2.7777777777777777	0	0	1
105	107	2.7777777777777777	0	0	1
106	105	2.7777777777777777	0	0	1
100	106	2.7777777777777777	0	0	1
107	104	2.7777777777777777	0	0	1
108	101	2.7777777777777777	0	0	1
107	108	2.7777777777777777	0	0	1
99	109	2.7777777777777777	0	0	1
110	106	2.7777777777777777	0	0	1
111	112	2.7777777777777777	0	0	1
113	111	2.7777777777777777	0	0	1
114	120	2.7777777777777777	0	0	1
115	114	2.7777777777777777	0	0	1
116	115	2.7777777777777777	0	0	1
117	119	2.7777777777777777	0	0	1
118	117	2.7777777777777777	0	0	1
112	118	2.7777777777777777	0	0	1
119	116	2.7777777777777777	0	0	1
120	113	2.7777777777777777	0	0	1
119	120	2.7777777777777777	0	0	1
111	121	2.7777777777777777	0	0	1
122	118	2.7777777777777777	0	0	1
123	124	2.7777777777777777	0	0	1
125	123	2.7777777777777777	0	0	1
126	132	2.7777777777777777	0	0	1
127	126	2.7777777777777777	0	0	1
128	127	2.7777777777777777	0	0	1
129	131	2.7777777777777777	0	0	1
130	129	2.7777777777777777	0	0	1
124	130	2.7777777777777777	0	0	1