[Format]      =  4.0
[Frequency]   =  0
[Precision]   =  1e-008
[MinAngle]    =  15
[DoSmartMesh] =  1
[Depth]       =  1500
[LengthUnits] =  millimeters
[ProblemType] =  planar
[Coordinates] =  cartesian
[ACSolver]    =  0
[PrevType]    =  0
[PrevSoln]    =  ""
[Comment]     =  "Add comments here."
[PointProps]   = 0
[BdryProps]   = 11
  <BeginBdry>
    <BdryName> = "A=0"
    <BdryType> = 0
    <A_0> = 0
    <A_1> = 0
    <A_2> = 0
    <Phi> = 0
    <c0> = 0
    <c0i> = 0
    <c1> = 0
    <c1i> = 0
    <Mu_ssd> = 0
    <Sigma_ssd> = 0
    <innerangle> = 0
    <outerangle> = 0
  <EndBdry>
  <BeginBdry>
    <BdryName> = "APr1"
    <BdryType> = 5
    <A_0> = 0
    <A_1> = 0
    <A_2> = 0
    <Phi> = 0
    <c0> = 0
    <c0i> = 0
    <c1> = 0
    <c1i> = 0
    <Mu_ssd> = 0
    <Sigma_ssd> = 0
    <innerangle> = 0
    <outerangle> = 0
  <EndBdry>
  <BeginBdry>
    <BdryName> = "APr2"
    <BdryType> = 5
    <A_0> = 0
    <A_1> = 0
    <A_2> = 0
    <Phi> = 0
    <c0> = 0
    <c0i> = 0
    <c1> = 0
    <c1i> = 0
    <Mu_ssd> = 0
    <Sigma_ssd> = 0
    <innerangle> = 0
    <outerangle> = 0
  <EndBdry>
  <BeginBdry>
    <BdryName> = "APr3"
    <BdryType> = 5
    <A_0> = 0
    <A_1> = 0
    <A_2> = 0
    <Phi> = 0
    <c0> = 0
    <c0i> = 0
    <c1> = 0
    <c1i> = 0
    <Mu_ssd> = 0
    <Sigma_ssd> = 0
    <innerangle> = 0
    <outerangle> = 0
  <EndBdry>
  <BeginBdry>
    <BdryName> = "APg1"
    <BdryType> = 5
    <A_0> = 0
    <A_1> = 0
    <A_2> = 0
    <Phi> = 0
    <c0> = 0
    <c0i> = 0
    <c1> = 0
    <c1i> = 0
    <Mu_ssd> = 0
    <Sigma_ssd> = 0
    <innerangle> = 0
    <outerangle> = 0
  <EndBdry>
  <BeginBdry>
    <BdryName> = "APg2"
    <BdryType> = 5
    <A_0> = 0
    <A_1> = 0
    <A_2> = 0
    <Phi> = 0
    <c0> = 0
    <c0i> = 0
    <c1> = 0
    <c1i> = 0
    <Mu_ssd> = 0
    <Sigma_ssd> = 0
    <innerangle> = 0
    <outerangle> = 0
  <EndBdry>
  <BeginBdry>
    <BdryName> = "APg3"
    <BdryType> = 5
    <A_0> = 0
    <A_1> = 0
    <A_2> = 0
    <Phi> = 0
    <c0> = 0
    <c0i> = 0
    <c1> = 0
    <c1i> = 0
    <Mu_ssd> = 0
    <Sigma_ssd> = 0
    <innerangle> = 0
    <outerangle> = 0
  <EndBdry>
  <BeginBdry>
    <BdryName> = "APs1"
    <BdryType> = 5
    <A_0> = 0
    <A_1> = 0
    <A_2> = 0
    <Phi> = 0
    <c0> = 0
    <c0i> = 0
    <c1> = 0
    <c1i> = 0
    <Mu_ssd> = 0
    <Sigma_ssd> = 0
    <innerangle> = 0
    <outerangle> = 0
  <EndBdry>
  <BeginBdry>
    <BdryName> = "APs2"
    <BdryType> = 5
    <A_0> = 0
    <A_1> = 0
    <A_2> = 0
    <Phi> = 0
    <c0> = 0
    <c0i> = 0
    <c1> = 0
    <c1i> = 0
    <Mu_ssd> = 0
    <Sigma_ssd> = 0
    <innerangle> = 0
    <outerangle> = 0
  <EndBdry>
  <BeginBdry>
    <BdryName> = "APs3"
    <BdryType> = 5
    <A_0> = 0
    <A_1> = 0
    <A_2> = 0
    <Phi> = 0
    <c0> = 0
    <c0i> = 0
    <c1> = 0
    <c1i> = 0
    <Mu_ssd> = 0
    <Sigma_ssd> = 0
    <innerangle> = 0
    <outerangle> = 0
  <EndBdry>
  <BeginBdry>
    <BdryName> = "AGap"
    <BdryType> = 7
    <A_0> = 0
    <A_1> = 0
    <A_2> = 0
    <Phi> = 0
    <c0> = 0
    <c0i> = 0
    <c1> = 0
    <c1i> = 0
    <Mu_ssd> = 0
    <Sigma_ssd> = 0
    <innerangle> = 0
    <outerangle> = 0
  <EndBdry>
[BlockProps]  = 13
  <BeginBlock>
    <BlockName> = "M270-35A"
    <Mu_x> = 1
    <Mu_y> = 1
    <H_c> = 0
    <H_cAngle> = 0
    <J_re> = 0
    <J_im> = 0
    <Sigma> = 0
    <d_lam> = 0
    <Phi_h> = 0
    <Phi_hx> = 0
    <Phi_hy> = 0
    <LamType> = 0
    <LamFill> = 1
    <NStrands> = 0
    <WireD> = 0
    <BHPoints> = 200
      0	0
      0.0045422769999999999	3.2767874890000002
      0.0090353559999999996	6.114592773
      0.013222249	8.4602422570000009
      0.017196487	10.462328400000001
      0.020991169	12.199266809999999
      0.024640190999999999	13.72982376
      0.028168996000000002	15.09561901
      0.031597466999999997	16.327217480000002
      0.034941272000000002	17.447599879999999
      0.038212956999999999	18.47443998
      0.041422729999999998	19.421601849999998
      0.044579012000000001	20.300151339999999
      0.047688851999999997	21.119056130000001
      0.050758219	21.885681389999998
      0.053792226999999998	22.60614816
      0.056795300999999999	23.285597330000002
      0.059771310000000001	23.928387470000001
      0.062723663999999998	24.538245379999999
      0.065655396000000005	25.11838217
      0.068569221	25.67158405
      0.071467592999999996	26.200284
      0.074352739000000001	26.70661905
      0.077226698999999996	27.19247648
      0.080091349000000006	27.65953137
      0.082948429000000004	28.109277410000001
      0.085799557999999998	28.54305239
      0.088646256000000007	28.96205934
      0.091489953999999998	29.36738437
      0.094332005999999996	29.760011540000001
      0.097173704999999999	30.140835630000002
      0.100016285	30.510672870000001
      0.102860934	30.870270300000001
      0.105708802	31.220313650000001
      0.108561001	31.561434299999998
      0.11141862	31.894215259999999
      0.114282722	32.21919639
      0.117154355	32.536878999999999
      0.120034552	32.847729870000002
      0.12292433699999999	33.152184810000001
      0.12582473199999999	33.45065185
      0.12873675200000001	33.743513989999997
      0.13166142	34.031131799999997
      0.13459976100000001	34.313845620000002
      0.137552811	34.591977620000002
      0.14052161499999999	34.865833639999998
      0.14350723800000001	35.135704879999999
      0.14651076099999999	35.401869419999997
      0.14953328699999999	35.664593680000003
      0.15257594699999999	35.924133650000002
      0.155639899	36.180736189999998
      0.158726334	36.434640119999997
      0.161836481	36.686077320000003
      0.16497160599999999	36.93527375
      0.16813302299999999	37.182450420000002
      0.17132209400000001	37.427824389999998
      0.17454023399999999	37.671609650000001
      0.17778891699999999	37.914018050000003
      0.18106968000000001	38.155260249999998
      0.18438413100000001	38.395546590000002
      0.18773395400000001	38.635088090000004
      0.191120915	38.87409736
      0.19454686800000001	39.112789630000002
      0.19801376800000001	39.351383830000003
      0.20152367299999999	39.590103640000002
      0.20507876	39.829178749999997
      0.208681327	40.068846100000002
      0.21233381500000001	40.309351300000003
      0.216038808	40.550950149999998
      0.21979905799999999	40.793910310000001
      0.22361749	41.038513199999997
      0.227497227	41.285056060000002
      0.2314416	41.53385428
      0.23545417299999999	41.785244059999997
      0.23953876299999999	42.039585369999998
      0.24369946200000001	42.297265359999997
      0.247940667	42.558702250000003
      0.25226710400000002	42.824349750000003
      0.25668386300000001	43.0947022
      0.26119642799999998	43.370300520000001
      0.26581071499999998	43.651739030000002
      0.27054201700000002	43.94020278
      0.275438138	44.23873004
      0.28051031599999998	44.548036490000001
      0.28576849199999999	44.868763260000001
      0.29122336399999998	45.201605100000002
      0.296886504	45.547319020000003
      0.30277045699999999	45.906731970000003
      0.30888884599999999	46.280749559999997
      0.31525650100000002	46.670366299999998
      0.321889598	47.076677459999999
      0.328805825	47.50089294
      0.33602457000000002	47.944353649999996
      0.34356714500000002	48.408550759999997
      0.351457032	48.895148689999999
      0.35972019	49.406012390000001
      0.36838539799999998	49.943240269999997
      0.37748466600000002	50.509203810000002
      0.38705371900000002	51.106595769999998
      0.39713256899999999	51.738489119999997
      0.40776619800000002	52.408409570000003
      0.41900536300000002	53.120425429999997
      0.43090757000000002	53.879259759999997
      0.44353822799999998	54.690431349999997
      0.45697202599999998	55.560433060000001
      0.47129457299999999	56.49695913
      0.486604327	57.509196449999997
      0.503014823	58.60819978
      0.520657166	59.807376320000003
      0.53968265500000001	61.123111049999999
      0.56026517099999995	62.575567960000001
      0.58260257699999995	64.189698669999999
      0.60691558199999995	65.996464399999994
      0.63344113800000001	68.034201780000004
      0.662415215	70.349880479999996
      0.69403682899999997	72.999622560000006
      0.72840307800000004	76.047204840000006
      0.76540934699999996	79.558509650000005
      0.80463064699999998	83.589963030000007
      0.84524547999999999	88.171938179999998
      0.88609953900000005	93.294734669999997
      0.92594964300000004	98.90894376
      0.963771241	104.9435902
      0.99893980100000002	111.3300564
      1.0312218310000001	118.0174305
      1.0606584889999999	124.9760964
      1.0874410889999999	132.19454709999999
      1.1118223309999999	139.6744898
      1.1340651580000001	147.42664859999999
      1.1544176930000001	155.46782519999999
      1.173103241	163.8190534
      1.1903180360000001	172.50453999999999
      1.2062325739999999	181.55112829999999
      1.220994358	190.98810510000001
      1.234730984	200.84723579999999
      1.2475531	211.16296399999999
      1.2595570490000001	221.97273730000001
      1.270827143	233.31744900000001
      1.281437594	245.2419931
      1.291454146	257.79594609999998
      1.3009354369999999	271.03439809999998
      1.309934159	285.01896390000002
      1.318498043	299.81902289999999
      1.326670706	315.51324579999999
      1.3344924010000001	332.19149570000002
      1.3420006879999999	349.95721329999998
      1.3492310569999999	368.93044570000001
      1.356217531	389.25173360000002
      1.362993272	411.08716509999999
      1.3695912379999999	434.63503709999998
      1.3760449050000001	460.1347695
      1.382389146	487.87903890000001
      1.3886613240000001	518.23060969999995
      1.394902732	551.64618570000005
      1.401160583	588.71104339999999
      1.4074908660000001	630.19074279999995
      1.4139626249999999	677.11087850000001
      1.420664664	730.8848299
      1.4277165590000001	793.52783980000004
      1.435287779	868.03580320000003
      1.4436331710000001	959.10175079999999
      1.453164339	1074.5891859999999
      1.464608755	1228.9034079999999
      1.479413587	1451.8548430000001
      1.5007295060000001	1812.597843
      1.531321148	2396.2922779999999
      1.5749716949999999	3340.7297119999998
      1.6351726849999999	4868.8615820000005
      1.6746062129999999	6056.7860730000002
      1.7053540309999999	7126.7301200000002
      1.7307497590000001	8135.9466300000004
      1.752580204	9119.3875740000003
      1.771845345	10098.25848
      1.789165838	11087.22133
      1.804957089	12097.58993
      1.819514077	13138.977849999999
      1.8330565510000001	14220.25051
      1.845754994	15350.15127
      1.8577465099999999	16537.778849999999
      1.869145125	17793.012470000001
      1.8800488470000001	19126.948680000001
      1.8905448170000001	20552.403480000001
      1.9007133519999999	22084.53774
      1.9106314310000001	23741.68173
      1.920376064	25546.46932
      1.930027954	27527.455720000002
      1.9396760099999999	29721.505959999999
      1.9494234969999999	32177.45292
      1.959397184	34961.935420000002
      1.969762051	38169.180130000001
      1.980746793	41938.394229999998
      1.9926918389999999	46487.096960000003
      2.0061495709999999	52181.595710000001
      2.022124024	59707.652569999998
      2.042772002	70576.241299999994
      2.0725625070000002	88161.987269999998
      2.1158769670000002	116616.322
      2.1803765140000002	162656.4026
      2.2792825830000001	237150.818
      2.3747656959999999	310949.48619999998
  <EndBlock>
  <BeginBlock>
    <BlockName> = "ShaftAir"
    <Mu_x> = 1
    <Mu_y> = 1
    <H_c> = 0
    <H_cAngle> = 0
    <J_re> = 0
    <J_im> = 0
    <Sigma> = 0
    <d_lam> = 0
    <Phi_h> = 0
    <Phi_hx> = 0
    <Phi_hy> = 0
    <LamType> = 0
    <LamFill> = 1
    <NStrands> = 0
    <WireD> = 0
    <BHPoints> = 3
      -100	-7.9577471545947675e-011
      0	0
      100	7.9577471545947675e-011
  <EndBlock>
  <BeginBlock>
    <BlockName> = "Copper"
    <Mu_x> = 1
    <Mu_y> = 1
    <H_c> = 0
    <H_cAngle> = 0
    <J_re> = 0
    <J_im> = 0
    <Sigma> = 58
    <d_lam> = 0
    <Phi_h> = 0
    <Phi_hx> = 0
    <Phi_hy> = 0
    <LamType> = 0
    <LamFill> = 1
    <NStrands> = 0
    <WireD> = 0
    <BHPoints> = 0
  <EndBlock>
  <BeginBlock>
    <BlockName> = "Aluminium"
    <Mu_x> = 1
    <Mu_y> = 1
    <H_c> = 0
    <H_cAngle> = 0
    <J_re> = 0
    <J_im> = 0
    <Sigma> = 29
    <d_lam> = 0
    <Phi_h> = 0
    <Phi_hx> = 0
    <Phi_hy> = 0
    <LamType> = 0
    <LamFill> = 1
    <NStrands> = 0
    <WireD> = 0
    <BHPoints> = 0
  <EndBlock>
  <BeginBlock>
    <BlockName> = "BMN-52UH"
    <Mu_x> = 1.05
    <Mu_y> = 1.05
    <H_c> = 1098926.9880154678
    <H_cAngle> = 0
    <J_re> = 0
    <J_im> = 0
    <Sigma> = 0.66600000000000004
    <d_lam> = 0
    <Phi_h> = 0
    <Phi_hx> = 0
    <Phi_hy> = 0
    <LamType> = 0
    <LamFill> = 1
    <NStrands> = 0
    <WireD> = 0
    <BHPoints> = 0
  <EndBlock>
  <BeginBlock>
    <BlockName> = "DW235"
    <Mu_x> = 1
    <Mu_y> = 1
    <H_c> = 0
    <H_cAngle> = 0
    <J_re> = 0
    <J_im> = 0
    <Sigma> = 0
    <d_lam> = 0
    <Phi_h> = 0
    <Phi_hx> = 0
    <Phi_hy> = 0
    <LamType> = 0
    <LamFill> = 1
    <NStrands> = 0
    <WireD> = 0
    <BHPoints> = 0
  <EndBlock>
  <BeginBlock>
    <BlockName> = "Air"
    <Mu_x> = 1
    <Mu_y> = 1
    <H_c> = 0
    <H_cAngle> = 0
    <J_re> = 0
    <J_im> = 0
    <Sigma> = 0
    <d_lam> = 0
    <Phi_h> = 0
    <Phi_hx> = 0
    <Phi_hy> = 0
    <LamType> = 0
    <LamFill> = 1
    <NStrands> = 0
    <WireD> = 0
    <BHPoints> = 0
  <EndBlock>
  <BeginBlock>
    <BlockName> = "BMN-52UH_1"
    <Mu_x> = 1.05
    <Mu_y> = 1.05
    <H_c> = 1098926.9880154678
    <H_cAngle> = 0
    <J_re> = 0
    <J_im> = 0
    <Sigma> = 0.66600000000000004
    <d_lam> = 0
    <Phi_h> = 0
    <Phi_hx> = 0
    <Phi_hy> = 0
    <LamType> = 0
    <LamFill> = 1
    <NStrands> = 0
    <WireD> = 0
    <BHPoints> = 0
  <EndBlock>
  <BeginBlock>
    <BlockName> = "BMN-52UH_2"
    <Mu_x> = 1.05
    <Mu_y> = 1.05
    <H_c> = 1098926.9880154678
    <H_cAngle> = 0
    <J_re> = 0
    <J_im> = 0
    <Sigma> = 0.66600000000000004
    <d_lam> = 0
    <Phi_h> = 0
    <Phi_hx> = 0
    <Phi_hy> = 0
    <LamType> = 0
    <LamFill> = 1
    <NStrands> = 0
    <WireD> = 0
    <BHPoints> = 0
  <EndBlock>
  <BeginBlock>
    <BlockName> = "BMN-52UH_3"
    <Mu_x> = 1.05
    <Mu_y> = 1.05
    <H_c> = 1098926.9880154678
    <H_cAngle> = 0
    <J_re> = 0
    <J_im> = 0
    <Sigma> = 0.66600000000000004
    <d_lam> = 0
    <Phi_h> = 0
    <Phi_hx> = 0
    <Phi_hy> = 0
    <LamType> = 0
    <LamFill> = 1
    <NStrands> = 0
    <WireD> = 0
    <BHPoints> = 0
  <EndBlock>
  <BeginBlock>
    <BlockName> = "BMN-52UH_4"
    <Mu_x> = 1.05
    <Mu_y> = 1.05
    <H_c> = 1098926.9880154678
    <H_cAngle> = 0
    <J_re> = 0
    <J_im> = 0
    <Sigma> = 0.66600000000000004
    <d_lam> = 0
    <Phi_h> = 0
    <Phi_hx> = 0
    <Phi_hy> = 0
    <LamType> = 0
    <LamFill> = 1
    <NStrands> = 0
    <WireD> = 0
    <BHPoints> = 0
  <EndBlock>
  <BeginBlock>
    <BlockName> = "BMN-52UH_5"
    <Mu_x> = 1.05
    <Mu_y> = 1.05
    <H_c> = 1098926.9880154678
    <H_cAngle> = 0
    <J_re> = 0
    <J_im> = 0
    <Sigma> = 0.66600000000000004
    <d_lam> = 0
    <Phi_h> = 0
    <Phi_hx> = 0
    <Phi_hy> = 0
    <LamType> = 0
    <LamFill> = 1
    <NStrands> = 0
    <WireD> = 0
    <BHPoints> = 0
  <EndBlock>
  <BeginBlock>
    <BlockName> = "BMN-52UH_6"
    <Mu_x> = 1.05
    <Mu_y> = 1.05
    <H_c> = 1098926.9880154678
    <H_cAngle> = 0
    <J_re> = 0
    <J_im> = 0
    <Sigma> = 0.66600000000000004
    <d_lam> = 0
    <Phi_h> = 0
    <Phi_hx> = 0
    <Phi_hy> = 0
    <LamType> = 0
    <LamFill> = 1
    <NStrands> = 0
    <WireD> = 0
    <BHPoints> = 0
  <EndBlock>
[CircuitProps]  = 6
  <BeginCircuit>
    <CircuitName> = "fase1"
    <TotalAmps_re> = 0
    <TotalAmps_im> = 0
    <CircuitType> = 1
  <EndCircuit>
  <BeginCircuit>
    <CircuitName> = "fase2"
    <TotalAmps_re> = 0
    <TotalAmps_im> = 0
    <CircuitType> = 1
  <EndCircuit>
  <BeginCircuit>
    <CircuitName> = "fase3"
    <TotalAmps_re> = 0
    <TotalAmps_im> = 0
    <CircuitType> = 1
  <EndCircuit>
  <BeginCircuit>
    <CircuitName> = "fase1n"
    <TotalAmps_re> = 0
    <TotalAmps_im> = 0
    <CircuitType> = 1
  <EndCircuit>
  <BeginCircuit>
    <CircuitName> = "fase2n"
    <TotalAmps_re> = 0
    <TotalAmps_im> = 0
    <CircuitType> = 1
  <EndCircuit>
  <BeginCircuit>
    <CircuitName> = "fase3n"
    <TotalAmps_re> = 0
    <TotalAmps_im> = 0
    <CircuitType> = 1
  <EndCircuit>
[NumPoints] = 221
1078.9197713186022	60.713288793594288	0	2
1079.5127194760055	47.132543214054472	0	2
1086.1556136093475	61.346342965095943	0	2
1090.7162010465472	66.638812073650627	0	2
1085.5596837763624	71.082248095555997	0	2
1068.7700011548361	69.613341201974208	0	2
1069.7701061211983	46.707171528590528	0	2
1050.6114693605407	48.029126162690254	0	2
1051.654136969488	47.073697328473742	0	2
1059.3986538811314	47.411830239207006	0	2
1060.3540827153477	48.454497848154197	0	2
1059.0568700241961	78.165553192739438	0	2
1084.9081099631032	80.427243625482419	0	2
1089.3832137082461	85.71333729760633	0	2
1084.1431596570405	90.149464798175217	0	2
1048.9070518675055	87.066704819813395	0	2
1069.177157963795	60.287917108130344	0	2
1049.3142566693891	77.740181507275494	0	2
1060.0530647222879	78.252708935487092	0	2
1059.2031310705399	87.967495028843928	0	2
1084.649111818173	80.404584223926776	0	2
1083.799178166425	90.119370317283611	0	2
1080.1056676334088	33.551797634514656	0	2
1087.3691496661938	33.551797634514656	0	2
1092.3736517674415	28.67694935421293	0	2
1087.6240275691057	23.801001855206842	0	2
1070.7702110875605	23.801001855206842	0	2
1051.7550185297957	44.763129723022047	0	2
1050.7995896955792	43.720462114074856	0	2
1059.4995354414391	45.101262633755312	0	2
1060.5422030503862	44.145833799538799	0	2
1061.8394157415378	14.434778454953559	0	2
1087.7894032173056	14.434778454953552	0	2
1092.7081912618553	9.5588309559481317	0	2
1087.8747111855655	4.6828834569517213	0	2
1052.5040071886144	4.6828834569517213	0	2
1070.3630542786016	33.126425949050713	0	2
1052.0968023867308	14.009406769489615	0	2
1062.839415741538	14.434778454953559	0	2
1062.839415741538	4.6828834569517355	0	2
1087.5294157415378	14.434778454953559	0	2
1087.5294157415378	4.6828834569517284	0	2
1093.7499999999998	0	0	20
386.11000000000001	0	0	2
1089.5879510378466	95.326593630251097	0	20
384.64073488020387	33.651703832298296	0	2
0	0	0	2
1250	0	0	1
1095.7499999999998	0	0	20
1245.2433726146819	108.94467843457271	0	1
1091.5803404340299	95.50090511574642	0	20
1106.8522467579414	4.4296133089967542	0	1
1106.8537192473659	4.024651432565113	0	1
1106.8629356981151	4.4700931619282418	0	1
1222.6464410621195	4.8910957231768162	0	1
1222.648167491714	4.4456937834248036	0	1
1222.6497058099158	4.0003169265197061	0	1
1106.8661747695264	3.5792885050664949	0	1
1106.8551917367904	3.6196895561334714	0	1
1164.7525223409923	3.7897701320676469	0	1
1164.7492832695809	4.6805747889293938	0	1
1095.7412090980949	4.3892122579297776	0	1
1095.7441540769439	3.5792885050664944	0	1
1106.7907661906243	12.478681915198127	0	1
1106.7951835810259	12.073741455068266	0	1
1106.8011604729543	12.519238429227801	0	1
1222.5785426568855	13.782223848364367	0	1
1222.5835080665893	13.336846240933916	0	1
1222.5882851874687	12.891492347714536	0	1
1106.8108775158905	11.628480882334847	0	1
1106.7996009714273	11.668800994938405	0	1
1164.6941637831676	12.2599146320731	0	1
1164.6844467402311	13.150672178966058	0	1
1095.6803161350672	12.357480898596101	0	1
1095.68915091587	11.547599978336381	0	1
1106.6707532862231	20.527090589605216	0	1
1106.6781153439886	20.122192960946322	0	1
1106.68085236101	20.567721619912554	0	1
1222.4459885086173	22.672623104287094	0	1
1222.4541926358365	22.227293382855237	0	1
1222.4622083067566	21.781986005744486	0	1
1106.697046861588	19.67705829046578	0	1
1106.6854774017543	19.717295332287424	0	1
1164.5742106823839	20.729410769734205	0	1
1164.5580161818057	21.620074099180979	0	1
1095.5614784081693	20.325096017151864	0	1
1095.5762025237009	19.515300759834076	0	1
1106.492214391588	28.574413694252907	0	1
1106.5025207273775	28.169580309969035	0	1
1106.5020177247454	28.615117092076616	0	1
1222.2487856274072	31.561823324530572	0	1
1222.260228038268	31.116565040241902	0	1
1222.2714818353222	30.671327729202702	0	1
1106.5246888265233	27.724595082570751	0	1
1106.5128270631672	27.764746925685163	0	1
1164.3926693823291	29.197810637986677	0	1
1164.3699982805515	30.088332647492543	0	1
1095.384702202103	28.291636248377799	0	1
1095.4053148736823	27.481969479810054	0	1
1106.2551589487014	36.620225648586164	0	1
1106.2684090174671	36.215477918183822	0	1
1106.2646660217827	36.660999261337814	0	1
1221.9869444422761	40.449354406091061	0	1
1222.0016245316501	40.004191106312227	0	1
1222.0161158596843	39.559047407602073	0	1
1106.2938125258049	35.77066566679391	0	1
1106.2816590862326	35.810730187781481	0	1
1164.1495494837673	37.664666387742145	0	1
1164.1204029797448	38.554999982286041	0	1
1095.149996865631	36.256680283899769	0	1
1095.1764970031622	35.447184823095085	0	1
1105.9595994941781	44.664100951966745	0	1
1105.9757925951931	44.259460280422651	0	1
1105.9688098044037	44.704942623344586	0	1
1221.6604788006266	49.334746334236762	0	1
1221.6783957921612	48.889701561311213	0	1
1221.696123884805	48.444675016236921	0	1
1106.0044301692653	43.814844528819442	0	1
1105.9919856962085	43.854819608878564	0	1
1163.8448638440293	46.129530251572533	0	1
1163.8092434791674	47.019628346097683	0	1
1094.857374811083	44.219806894469563	0	1
1094.8897610131135	43.410525551381383	0	1
1105.6055516586011	52.705614206175646	0	1
1105.6246869354984	52.301101992804767	0	1
1105.6144647188869	52.746521776278705	0	1
1221.269405967508	58.217529207364471	0	1
1221.2905589136676	57.772626497367355	0	1
1221.3115228333759	57.32774064104013	0	1
1105.6565570608145	51.856706254374735	0	1
1105.6438222123954	51.896589779433882	0	1
1163.478628576335	54.591954567390147	0	1
1163.4365362344074	55.481770089294109	0	1
1094.5068515136988	52.180594952241471	0	1
1094.5451220674934	51.371570525499699	0	1
1105.1930341656973	60.74434013791025	0	1
1105.2151106065121	60.339977775234033	0	1
1105.2016495046778	60.785311443352484	0	1
1220.8137466247033	67.097233261850135	0	1
1220.8381344068196	66.652496143343669	0	1
1220.8623330449213	66.207774503434408	0	1
1105.2502115976288	59.895825551728343	0	1
1105.2371870473269	59.935615412557816	0	1
1163.0508630489401	63.051491802122101	0	1
1163.0023009559891	63.940977693746248	0	1
1094.098445510811	60.138623453043522	0	1
1094.1425983924407	59.329898727691088	0	1
1104.7220688313446	68.779853621274725	0	1
1104.7470852685703	68.375662493889834	0	1
1104.7303859934	68.820886495299476	0	1
1220.2935248696363	75.973388896892232	0	1
1220.3211461979686	75.528840889681348	0	1
1220.3485782747248	75.084306985176426	0	1
1104.7854152691812	67.9317772741814	0	1
1104.7721017057961	67.971471366504943	0	1
1162.5615898841111	71.507694575378096	0	1
1162.5065606083299	72.396803796496172	0	1
1093.6321784008626	68.093471538642206	0	1
1093.6822112753143	67.285089283872423	0	1
1104.1926805624205	76.811729700262731	0	1
1104.2206356730696	76.407731183710084	0	1
1104.2006991077003	76.852821972857313	0	1
1219.7087682140973	84.845526699346451	0	1
1219.7396216278985	84.401191313235003	0	1
1219.7702856925712	83.95686865319243	0	1
1104.2621926561028	75.964136442551407	0	1
1104.2485907837188	76.00373266715745	0	1
1162.0108349569298	79.960115683109862	0	1
1161.9493414085275	80.84880121341574	0	1
1093.1080748422664	76.044718518999403	0	1
1093.163985063565	75.236721485894108	0	1
1103.6048973554839	84.839543611231093	0	1
1103.6357896611578	84.435759070865444	0	1
1103.6126168599292	84.88069310924152	0	1
1219.0595075827873	93.713177468550512	0	1
1219.093591450383	93.269078202097916	0	1
1219.127485881311	92.824990284404123	0	1
1103.6805714288826	83.992478267647158	0	1
1103.6666819668314	84.031974530499795	0	1
1161.3986273939254	88.40830812126157	0	1
1161.3306728249715	89.296522962855946	0	1
1092.5261625521009	83.991943894520517	0	1
1092.5879471634485	83.184374813789219	0	1
1102.9587502952941	92.862870805363343	0	1
1102.992578162261	92.459321595223358	0	1
1102.9661703506608	92.904075352609297	0	1
1218.3457773116834	102.57587224113769	0	1
1218.3830898305569	102.13203258041628	0	1
1218.4202128352424	101.68820289054338	0	1
1103.0405823464062	92.016378172733553	0	1
1103.0264060292282	92.055772385083387	0	1
1160.7249995715324	96.851825109409475	0	1
1160.6505875757869	97.739522289285233	0	1
1091.8864723046436	91.934727378292465	0	1
1091.9541280385777	91.127628958012522	0	1
1249.9669470402218	9.0901763980270491	0	1
1095.7210257754582	7.9684486305105091	0	1
1249.8677899088843	18.179872064478321	0	1
1095.6341046341279	15.936475851721692	0	1
1249.7025338498863	27.268606293201401	0	1
1095.4892411728101	23.903660276620343	0	1
1249.4711876027507	36.355898428889255	0	1
1095.286443052571	31.869580562764316	0	1
1249.1737634021626	45.44126789249956	0	1
1095.0257209983354	39.833815434565103	0	1
1248.8102769773222	54.524234206670002	0	1
1094.7070887983205	47.795943705566913	0	1
1248.380747551113	63.604317021128161	0	1
1094.3305633033053	55.755544300720935	0	1
1247.8851978390853	72.681036138094782	0	1
1093.896164425742	63.71219627865387	0	1
1247.3236540482544	81.753911537678832	0	1
1093.4039151386996	71.665478853929244	0	1
1246.6961458757153	90.822463403263242	0	1
1092.8538414746517	79.614971419300545	0	1
1246.0027065070719	99.886212146879956	0	1
1092.245972524099	87.560253567954959	0	1
1095.083333333333	0	0	20
1090.9162106353021	95.442801287247974	0	20
1094.4166666666665	0	0	20
1090.2520808365744	95.384697458749542	0	20
[NumSegments] = 218
0	1	1.5432098765432098	0	0	2
2	0	1.5432098765432098	0	0	2
5	4	1.5432098765432098	0	0	2
6	16	1.5432098765432098	0	0	2
9	8	1.5432098765432098	0	0	2
11	10	1.5432098765432098	0	0	2
12	20	1.5432098765432098	0	0	2
15	19	1.5432098765432098	0	0	2
7	17	1.5432098765432098	0	0	2
1	6	1.5432098765432098	0	0	2
16	5	1.5432098765432098	0	0	2
16	0	1.5432098765432098	0	0	2
10	7	1.5432098765432098	0	0	2
17	15	1.5432098765432098	0	0	2
17	11	1.5432098765432098	0	0	2
18	11	1.5432098765432098	0	0	2
19	21	1.5432098765432098	0	0	2
18	19	1.5432098765432098	0	0	2
20	18	1.5432098765432098	0	0	2
21	14	1.5432098765432098	0	0	2
21	20	1.5432098765432098	0	0	2
22	1	1.5432098765432098	0	0	2
23	22	1.5432098765432098	0	0	2
26	25	1.5432098765432098	0	0	2
6	36	1.5432098765432098	0	0	2
29	27	1.5432098765432098	0	0	2
31	30	1.5432098765432098	0	0	2
32	40	1.5432098765432098	0	0	2
35	39	1.5432098765432098	0	0	2
28	37	1.5432098765432098	0	0	2
36	26	1.5432098765432098	0	0	2
36	22	1.5432098765432098	0	0	2
30	28	1.5432098765432098	0	0	2
37	35	1.5432098765432098	0	0	2
37	31	1.5432098765432098	0	0	2
38	31	1.5432098765432098	0	0	2
39	41	1.5432098765432098	0	0	2
38	39	1.5432098765432098	0	0	2
40	38	1.5432098765432098	0	0	2
41	34	1.5432098765432098	0	0	2
41	40	1.5432098765432098	0	0	2
42	43	-1	4	0	2
45	44	-1	4	0	2
43	46	-1	2	0	2
46	45	-1	2	0	2
47	48	-1	10	0	1
50	49	-1	10	0	1
51	52	1.5432098765432098	0	0	1
53	51	1.5432098765432098	0	0	1
54	60	1.5432098765432098	0	0	1
55	54	1.5432098765432098	0	0	1
56	55	1.5432098765432098	0	0	1
57	59	1.5432098765432098	0	0	1
58	57	1.5432098765432098	0	0	1
52	58	1.5432098765432098	0	0	1
59	56	1.5432098765432098	0	0	1
60	53	1.5432098765432098	0	0	1
59	60	1.5432098765432098	0	0	1
51	61	1.5432098765432098	0	0	1
62	58	1.5432098765432098	0	0	1
63	64	1.5432098765432098	0	0	1
65	63	1.5432098765432098	0	0	1
66	72	1.5432098765432098	0	0	1
67	66	1.5432098765432098	0	0	1
68	67	1.5432098765432098	0	0	1
69	71	1.5432098765432098	0	0	1
70	69	1.5432098765432098	0	0	1
64	70	1.5432098765432098	0	0	1
71	68	1.5432098765432098	0	0	1
72	65	1.5432098765432098	0	0	1
71	72	1.5432098765432098	0	0	1
63	73	1.5432098765432098	0	0	1
74	70	1.5432098765432098	0	0	1
75	76	1.5432098765432098	0	0	1
77	75	1.5432098765432098	0	0	1
78	84	1.5432098765432098	0	0	1
79	78	1.5432098765432098	0	0	1
80	79	1.5432098765432098	0	0	1
81	83	1.5432098765432098	0	0	1
82	81	1.5432098765432098	0	0	1
76	82	1.5432098765432098	0	0	1
83	80	1.5432098765432098	0	0	1
84	77	1.5432098765432098	0	0	1
83	84	1.5432098765432098	0	0	1
75	85	1.5432098765432098	0	0	1
86	82	1.5432098765432098	0	0	1
87	88	1.5432098765432098	0	0	1
89	87	1.5432098765432098	0	0	1
90	96	1.5432098765432098	0	0	1
91	90	1.5432098765432098	0	0	1
92	91	1.5432098765432098	0	0	1
93	95	1.5432098765432098	0	0	1
94	93	1.5432098765432098	0	0	1
88	94	1.5432098765432098	0	0	1
95	92	1.5432098765432098	0	0	1
96	89	1.5432098765432098	0	0	1
95	96	1.5432098765432098	0	0	1
87	97	1.5432098765432098	0	0	1
98	94	1.5432098765432098	0	0	1
99	100	1.5432098765432098	0	0	1
101	99	1.5432098765432098	0	0	1
102	108	1.5432098765432098	0	0	1
103	102	1.5432098765432098	0	0	1
104	103	1.5432098765432098	0	0	1
105	107	1.5432098765432098	0	0	1
106	105	1.5432098765432098	0	0	1
100	106	1.5432098765432098	0	0	1
107	104	1.5432098765432098	0	0	1
108	101	1.5432098765432098	0	0	1
107	108	1.5432098765432098	0	0	1
99	109	1.5432098765432098	0	0	1
110	106	1.5432098765432098	0	0	1
111	112	1.5432098765432098	0	0	1
113	111	1.5432098765432098	0	0	1
114	120	1.5432098765432098	0	0	1
115	114	1.5432098765432098	0	0	1
116	115	1.5432098765432098	0	0	1
117	119	1.5432098765432098	0	0	1
118	117	1.5432098765432098	0	0	1
112	118	1.5432098765432098	0	0	1
119	116	1.5432098765432098	0	0	1
120	113	1.5432098765432098	0	0	1
119	120	1.5432098765432098	0	0	1
111	121	1.5432098765432098	0	0	1
122	118	1.5432098765432098	0	0	1
123	124	1.5432098765432098	0	0	1
125	123	1.5432098765432098	0	0	1
126	132	1.5432098765432098	0	0	1
127	126	1.5432098765432098	0	0	1
128	127	1.5432098765432098	0	0	1
129	131	1.5432098765432098	0	0	1
130	129	1.5432098765432098	0	0	1
124	130	1.5432098765432098	0	0	1
131	128	1.5432098765432098	0	0	1
132	125	1.5432098765432098	0	0	1
131	132	1.5432098765432098	0	0	1
123	133	1.5432098765432098	0	0	1
134	130	1.5432098765432098	0	0	1
135	136	1.5432098765432098	0	0	1