[Format]      =  4.0
[Frequency]   =  0
[Precision]   =  1e-008
[MinAngle]    =  15
[DoSmartMesh] =  1
[Depth]       =  300
[LengthUnits] =  millimeters
[ProblemType] =  planar
[Coordinates] =  cartesian
[ACSolver]    =  0
[PrevType]    =  0
[PrevSoln]    =  ""
[Comment]     =  "Add comments here."
[PointProps]   = 0
[BdryProps]   = 11
  <BeginBdry>
    <BdryName> = "A=0"
    <BdryType> = 0
    <A_0> = 0
    <A_1> = 0
    <A_2> = 0
    <Phi> = 0
    <c0> = 0
    <c0i> = 0
    <c1> = 0
    <c1i> = 0
    <Mu_ssd> = 0
    <Sigma_ssd> = 0
    <innerangle> = 0
    <outerangle> = 0
  <EndBdry>
  <BeginBdry>
    <BdryName> = "APr1"
    <BdryType> = 5
    <A_0> = 0
    <A_1> = 0
    <A_2> = 0
    <Phi> = 0
    <c0> = 0
    <c0i> = 0
    <c1> = 0
    <c1i> = 0
    <Mu_ssd> = 0
    <Sigma_ssd> = 0
    <innerangle> = 0
    <outerangle> = 0
  <EndBdry>
  <BeginBdry>
    <BdryName> = "APr2"
    <BdryType> = 5
    <A_0> = 0
    <A_1> = 0
    <A_2> = 0
    <Phi> = 0
    <c0> = 0
    <c0i> = 0
    <c1> = 0
    <c1i> = 0
    <Mu_ssd> = 0
    <Sigma_ssd> = 0
    <innerangle> = 0
    <outerangle> = 0
  <EndBdry>
  <BeginBdry>
    <BdryName> = "APr3"
    <BdryType> = 5
    <A_0> = 0
    <A_1> = 0
    <A_2> = 0
    <Phi> = 0
    <c0> = 0
    <c0i> = 0
    <c1> = 0
    <c1i> = 0
    <Mu_ssd> = 0
    <Sigma_ssd> = 0
    <innerangle> = 0
    <outerangle> = 0
  <EndBdry>
  <BeginBdry>
    <BdryName> = "APg1"
    <BdryType> = 5
    <A_0> = 0
    <A_1> = 0
    <A_2> = 0
    <Phi> = 0
    <c0> = 0
    <c0i> = 0
    <c1> = 0
    <c1i> = 0
    <Mu_ssd> = 0
    <Sigma_ssd> = 0
    <innerangle> = 0
    <outerangle> = 0
  <EndBdry>
  <BeginBdry>
    <BdryName> = "APg2"
    <BdryType> = 5
    <A_0> = 0
    <A_1> = 0
    <A_2> = 0
    <Phi> = 0
    <c0> = 0
    <c0i> = 0
    <c1> = 0
    <c1i> = 0
    <Mu_ssd> = 0
    <Sigma_ssd> = 0
    <innerangle> = 0
    <outerangle> = 0
  <EndBdry>
  <BeginBdry>
    <BdryName> = "APg3"
    <BdryType> = 5
    <A_0> = 0
    <A_1> = 0
    <A_2> = 0
    <Phi> = 0
    <c0> = 0
    <c0i> = 0
    <c1> = 0
    <c1i> = 0
    <Mu_ssd> = 0
    <Sigma_ssd> = 0
    <innerangle> = 0
    <outerangle> = 0
  <EndBdry>
  <BeginBdry>
    <BdryName> = "APs1"
    <BdryType> = 5
    <A_0> = 0
    <A_1> = 0
    <A_2> = 0
    <Phi> = 0
    <c0> = 0
    <c0i> = 0
    <c1> = 0
    <c1i> = 0
    <Mu_ssd> = 0
    <Sigma_ssd> = 0
    <innerangle> = 0
    <outerangle> = 0
  <EndBdry>
  <BeginBdry>
    <BdryName> = "APs2"
    <BdryType> = 5
    <A_0> = 0
    <A_1> = 0
    <A_2> = 0
    <Phi> = 0
    <c0> = 0
    <c0i> = 0
    <c1> = 0
    <c1i> = 0
    <Mu_ssd> = 0
    <Sigma_ssd> = 0
    <innerangle> = 0
    <outerangle> = 0
  <EndBdry>
  <BeginBdry>
    <BdryName> = "APs3"
    <BdryType> = 5
    <A_0> = 0
    <A_1> = 0
    <A_2> = 0
    <Phi> = 0
    <c0> = 0
    <c0i> = 0
    <c1> = 0
    <c1i> = 0
    <Mu_ssd> = 0
    <Sigma_ssd> = 0
    <innerangle> = 0
    <outerangle> = 0
  <EndBdry>
  <BeginBdry>
    <BdryName> = "AGap"
    <BdryType> = 7
    <A_0> = 0
    <A_1> = 0
    <A_2> = 0
    <Phi> = 0
    <c0> = 0
    <c0i> = 0
    <c1> = 0
    <c1i> = 0
    <Mu_ssd> = 0
    <Sigma_ssd> = 0
    <innerangle> = 1.1200000000000001
    <outerangle> = 0
  <EndBdry>
[BlockProps]  = 9
  <BeginBlock>
    <BlockName> = "M270-35A"
    <Mu_x> = 1
    <Mu_y> = 1
    <H_c> = 0
    <H_cAngle> = 0
    <J_re> = 0
    <J_im> = 0
    <Sigma> = 0
    <d_lam> = 0
    <Phi_h> = 0
    <Phi_hx> = 0
    <Phi_hy> = 0
    <LamType> = 0
    <LamFill> = 1
    <NStrands> = 0
    <WireD> = 0
    <BHPoints> = 200
      0	0
      0.0045422769999999999	3.2767874890000002
      0.0090353559999999996	6.114592773
      0.013222249	8.4602422570000009
      0.017196487	10.462328400000001
      0.020991169	12.199266809999999
      0.024640190999999999	13.72982376
      0.028168996000000002	15.09561901
      0.031597466999999997	16.327217480000002
      0.034941272000000002	17.447599879999999
      0.038212956999999999	18.47443998
      0.041422729999999998	19.421601849999998
      0.044579012000000001	20.300151339999999
      0.047688851999999997	21.119056130000001
      0.050758219	21.885681389999998
      0.053792226999999998	22.60614816
      0.056795300999999999	23.285597330000002
      0.059771310000000001	23.928387470000001
      0.062723663999999998	24.538245379999999
      0.065655396000000005	25.11838217
      0.068569221	25.67158405
      0.071467592999999996	26.200284
      0.074352739000000001	26.70661905
      0.077226698999999996	27.19247648
      0.080091349000000006	27.65953137
      0.082948429000000004	28.109277410000001
      0.085799557999999998	28.54305239
      0.088646256000000007	28.96205934
      0.091489953999999998	29.36738437
      0.094332005999999996	29.760011540000001
      0.097173704999999999	30.140835630000002
      0.100016285	30.510672870000001
      0.102860934	30.870270300000001
      0.105708802	31.220313650000001
      0.108561001	31.561434299999998
      0.11141862	31.894215259999999
      0.114282722	32.21919639
      0.117154355	32.536878999999999
      0.120034552	32.847729870000002
      0.12292433699999999	33.152184810000001
      0.12582473199999999	33.45065185
      0.12873675200000001	33.743513989999997
      0.13166142	34.031131799999997
      0.13459976100000001	34.313845620000002
      0.137552811	34.591977620000002
      0.14052161499999999	34.865833639999998
      0.14350723800000001	35.135704879999999
      0.14651076099999999	35.401869419999997
      0.14953328699999999	35.664593680000003
      0.15257594699999999	35.924133650000002
      0.155639899	36.180736189999998
      0.158726334	36.434640119999997
      0.161836481	36.686077320000003
      0.16497160599999999	36.93527375
      0.16813302299999999	37.182450420000002
      0.17132209400000001	37.427824389999998
      0.17454023399999999	37.671609650000001
      0.17778891699999999	37.914018050000003
      0.18106968000000001	38.155260249999998
      0.18438413100000001	38.395546590000002
      0.18773395400000001	38.635088090000004
      0.191120915	38.87409736
      0.19454686800000001	39.112789630000002
      0.19801376800000001	39.351383830000003
      0.20152367299999999	39.590103640000002
      0.20507876	39.829178749999997
      0.208681327	40.068846100000002
      0.21233381500000001	40.309351300000003
      0.216038808	40.550950149999998
      0.21979905799999999	40.793910310000001
      0.22361749	41.038513199999997
      0.227497227	41.285056060000002
      0.2314416	41.53385428
      0.23545417299999999	41.785244059999997
      0.23953876299999999	42.039585369999998
      0.24369946200000001	42.297265359999997
      0.247940667	42.558702250000003
      0.25226710400000002	42.824349750000003
      0.25668386300000001	43.0947022
      0.26119642799999998	43.370300520000001
      0.26581071499999998	43.651739030000002
      0.27054201700000002	43.94020278
      0.275438138	44.23873004
      0.28051031599999998	44.548036490000001
      0.28576849199999999	44.868763260000001
      0.29122336399999998	45.201605100000002
      0.296886504	45.547319020000003
      0.30277045699999999	45.906731970000003
      0.30888884599999999	46.280749559999997
      0.31525650100000002	46.670366299999998
      0.321889598	47.076677459999999
      0.328805825	47.50089294
      0.33602457000000002	47.944353649999996
      0.34356714500000002	48.408550759999997
      0.351457032	48.895148689999999
      0.35972019	49.406012390000001
      0.36838539799999998	49.943240269999997
      0.37748466600000002	50.509203810000002
      0.38705371900000002	51.106595769999998
      0.39713256899999999	51.738489119999997
      0.40776619800000002	52.408409570000003
      0.41900536300000002	53.120425429999997
      0.43090757000000002	53.879259759999997
      0.44353822799999998	54.690431349999997
      0.45697202599999998	55.560433060000001
      0.47129457299999999	56.49695913
      0.486604327	57.509196449999997
      0.503014823	58.60819978
      0.520657166	59.807376320000003
      0.53968265500000001	61.123111049999999
      0.56026517099999995	62.575567960000001
      0.58260257699999995	64.189698669999999
      0.60691558199999995	65.996464399999994
      0.63344113800000001	68.034201780000004
      0.662415215	70.349880479999996
      0.69403682899999997	72.999622560000006
      0.72840307800000004	76.047204840000006
      0.76540934699999996	79.558509650000005
      0.80463064699999998	83.589963030000007
      0.84524547999999999	88.171938179999998
      0.88609953900000005	93.294734669999997
      0.92594964300000004	98.90894376
      0.963771241	104.9435902
      0.99893980100000002	111.3300564
      1.0312218310000001	118.0174305
      1.0606584889999999	124.9760964
      1.0874410889999999	132.19454709999999
      1.1118223309999999	139.6744898
      1.1340651580000001	147.42664859999999
      1.1544176930000001	155.46782519999999
      1.173103241	163.8190534
      1.1903180360000001	172.50453999999999
      1.2062325739999999	181.55112829999999
      1.220994358	190.98810510000001
      1.234730984	200.84723579999999
      1.2475531	211.16296399999999
      1.2595570490000001	221.97273730000001
      1.270827143	233.31744900000001
      1.281437594	245.2419931
      1.291454146	257.79594609999998
      1.3009354369999999	271.03439809999998
      1.309934159	285.01896390000002
      1.318498043	299.81902289999999
      1.326670706	315.51324579999999
      1.3344924010000001	332.19149570000002
      1.3420006879999999	349.95721329999998
      1.3492310569999999	368.93044570000001
      1.356217531	389.25173360000002
      1.362993272	411.08716509999999
      1.3695912379999999	434.63503709999998
      1.3760449050000001	460.1347695
      1.382389146	487.87903890000001
      1.3886613240000001	518.23060969999995
      1.394902732	551.64618570000005
      1.401160583	588.71104339999999
      1.4074908660000001	630.19074279999995
      1.4139626249999999	677.11087850000001
      1.420664664	730.8848299
      1.4277165590000001	793.52783980000004
      1.435287779	868.03580320000003
      1.4436331710000001	959.10175079999999
      1.453164339	1074.5891859999999
      1.464608755	1228.9034079999999
      1.479413587	1451.8548430000001
      1.5007295060000001	1812.597843
      1.531321148	2396.2922779999999
      1.5749716949999999	3340.7297119999998
      1.6351726849999999	4868.8615820000005
      1.6746062129999999	6056.7860730000002
      1.7053540309999999	7126.7301200000002
      1.7307497590000001	8135.9466300000004
      1.752580204	9119.3875740000003
      1.771845345	10098.25848
      1.789165838	11087.22133
      1.804957089	12097.58993
      1.819514077	13138.977849999999
      1.8330565510000001	14220.25051
      1.845754994	15350.15127
      1.8577465099999999	16537.778849999999
      1.869145125	17793.012470000001
      1.8800488470000001	19126.948680000001
      1.8905448170000001	20552.403480000001
      1.9007133519999999	22084.53774
      1.9106314310000001	23741.68173
      1.920376064	25546.46932
      1.930027954	27527.455720000002
      1.9396760099999999	29721.505959999999
      1.9494234969999999	32177.45292
      1.959397184	34961.935420000002
      1.969762051	38169.180130000001
      1.980746793	41938.394229999998
      1.9926918389999999	46487.096960000003
      2.0061495709999999	52181.595710000001
      2.022124024	59707.652569999998
      2.042772002	70576.241299999994
      2.0725625070000002	88161.987269999998
      2.1158769670000002	116616.322
      2.1803765140000002	162656.4026
      2.2792825830000001	237150.818
      2.3747656959999999	310949.48619999998
  <EndBlock>
  <BeginBlock>
    <BlockName> = "ShaftAir"
    <Mu_x> = 1
    <Mu_y> = 1
    <H_c> = 0
    <H_cAngle> = 0
    <J_re> = 0
    <J_im> = 0
    <Sigma> = 0
    <d_lam> = 0
    <Phi_h> = 0
    <Phi_hx> = 0
    <Phi_hy> = 0
    <LamType> = 0
    <LamFill> = 1
    <NStrands> = 0
    <WireD> = 0
    <BHPoints> = 3
      -100	-7.9577471545947675e-011
      0	0
      100	7.9577471545947675e-011
  <EndBlock>
  <BeginBlock>
    <BlockName> = "Copper"
    <Mu_x> = 1
    <Mu_y> = 1
    <H_c> = 0
    <H_cAngle> = 0
    <J_re> = 0
    <J_im> = 0
    <Sigma> = 58
    <d_lam> = 0
    <Phi_h> = 0
    <Phi_hx> = 0
    <Phi_hy> = 0
    <LamType> = 0
    <LamFill> = 1
    <NStrands> = 0
    <WireD> = 0
    <BHPoints> = 0
  <EndBlock>
  <BeginBlock>
    <BlockName> = "Aluminium"
    <Mu_x> = 1
    <Mu_y> = 1
    <H_c> = 0
    <H_cAngle> = 0
    <J_re> = 0
    <J_im> = 0
    <Sigma> = 29
    <d_lam> = 0
    <Phi_h> = 0
    <Phi_hx> = 0
    <Phi_hy> = 0
    <LamType> = 0
    <LamFill> = 1
    <NStrands> = 0
    <WireD> = 0
    <BHPoints> = 0
  <EndBlock>
  <BeginBlock>
    <BlockName> = "BMH-38EH"
    <Mu_x> = 1.05
    <Mu_y> = 1.05
    <H_c> = 954929.65855137201
    <H_cAngle> = 0
    <J_re> = 0
    <J_im> = 0
    <Sigma> = 0.66666666666666663
    <d_lam> = 0
    <Phi_h> = 0
    <Phi_hx> = 0
    <Phi_hy> = 0
    <LamType> = 0
    <LamFill> = 1
    <NStrands> = 0
    <WireD> = 0
    <BHPoints> = 0
  <EndBlock>
  <BeginBlock>
    <BlockName> = "DW235"
    <Mu_x> = 1
    <Mu_y> = 1
    <H_c> = 0
    <H_cAngle> = 0
    <J_re> = 0
    <J_im> = 0
    <Sigma> = 0
    <d_lam> = 0
    <Phi_h> = 0
    <Phi_hx> = 0
    <Phi_hy> = 0
    <LamType> = 0
    <LamFill> = 1
    <NStrands> = 0
    <WireD> = 0
    <BHPoints> = 0
  <EndBlock>
  <BeginBlock>
    <BlockName> = "Air"
    <Mu_x> = 1
    <Mu_y> = 1
    <H_c> = 0
    <H_cAngle> = 0
    <J_re> = 0
    <J_im> = 0
    <Sigma> = 0
    <d_lam> = 0
    <Phi_h> = 0
    <Phi_hx> = 0
    <Phi_hy> = 0
    <LamType> = 0
    <LamFill> = 1
    <NStrands> = 0
    <WireD> = 0
    <BHPoints> = 0
  <EndBlock>
  <BeginBlock>
    <BlockName> = "BMH-38EH_1"
    <Mu_x> = 1.05
    <Mu_y> = 1.05
    <H_c> = 954929.65855137201
    <H_cAngle> = 0
    <J_re> = 0
    <J_im> = 0
    <Sigma> = 0.66666666666666663
    <d_lam> = 0
    <Phi_h> = 0
    <Phi_hx> = 0
    <Phi_hy> = 0
    <LamType> = 0
    <LamFill> = 1
    <NStrands> = 0
    <WireD> = 0
    <BHPoints> = 0
  <EndBlock>
  <BeginBlock>
    <BlockName> = "BMH-38EH_2"
    <Mu_x> = 1.05
    <Mu_y> = 1.05
    <H_c> = 954929.65855137201
    <H_cAngle> = 0
    <J_re> = 0
    <J_im> = 0
    <Sigma> = 0.66666666666666663
    <d_lam> = 0
    <Phi_h> = 0
    <Phi_hx> = 0
    <Phi_hy> = 0
    <LamType> = 0
    <LamFill> = 1
    <NStrands> = 0
    <WireD> = 0
    <BHPoints> = 0
  <EndBlock>
[CircuitProps]  = 6
  <BeginCircuit>
    <CircuitName> = "fase1"
    <TotalAmps_re> = -327.47896516517466
    <TotalAmps_im> = -0
    <CircuitType> = 1
  <EndCircuit>
  <BeginCircuit>
    <CircuitName> = "fase2"
    <TotalAmps_re> = 745.21611483305605
    <TotalAmps_im> = 0
    <CircuitType> = 1
  <EndCircuit>
  <BeginCircuit>
    <CircuitName> = "fase3"
    <TotalAmps_re> = -417.73714966788157
    <TotalAmps_im> = -0
    <CircuitType> = 1
  <EndCircuit>
  <BeginCircuit>
    <CircuitName> = "fase1n"
    <TotalAmps_re> = 327.47896516517466
    <TotalAmps_im> = 0
    <CircuitType> = 1
  <EndCircuit>
  <BeginCircuit>
    <CircuitName> = "fase2n"
    <TotalAmps_re> = -745.21611483305605
    <TotalAmps_im> = -0
    <CircuitType> = 1
  <EndCircuit>
  <BeginCircuit>
    <CircuitName> = "fase3n"
    <TotalAmps_re> = 417.73714966788157
    <TotalAmps_im> = 0
    <CircuitType> = 1
  <EndCircuit>
[NumPoints] = 67
983.2245984973739	30.899077812745585	0	2
971.51234064274581	30.531005281437714	0	2
981.76887302217517	61.767661966180867	0	20
970.07395589738348	61.031880146715594	0	2
973.77005704984492	58.193718041454808	0	2
970.26090576913714	57.984006766481954	0	2
983.71000000000015	0	0	20
971.99196000000006	-3.5527136788005009e-015	0	2
975.50255806803341	3.0646417522584528	0	2
971.98716341588204	3.0535977779115449	0	2
811.86000000000001	0	0	2
810.25797974177658	50.97711118506836	0	2
0	0	0	2
1081	0	0	1
988.03399999999999	0	0	20
1078.8668934309615	67.87655161118775	0	1
986.08434059589888	62.039168172625608	0	20
997.5586172906975	12.964458388019708	0	1
997.58498031146758	10.447067370763474	0	1
997.58459808243913	13.065646891021567	0	1
1063.8926451185605	13.760048519235564	0	1
1065.9826923333146	11.715835710251877	0	1
1065.9891559332589	11.163420408616219	0	1
1065.9942626640857	10.610990897360967	0	1
1063.9474845942007	8.5234557716797994	0	1
997.63943755807952	7.8290541434658021	0	1
997.61134333223765	7.9296763535072401	0	1
1031.8128800843906	8.1869306787077623	0	1
1031.7580406087504	13.423523426263527	0	1
987.950255263283	12.86383617797827	0	1
988.00298130482315	7.8290541434658021	0	1
997.06832906999318	33.852906489618313	0	1
997.14740656861102	31.3366196832628	0	1
997.09218503160059	33.954616900958868	0	1
1063.3711471667905	36.037517198096538	0	1
1065.5035467626287	34.037523365110218	0	1
1065.5215778581955	33.485364580702942	0	1
1065.5382526798126	32.933163173669698	0	1
1063.5356415393048	30.803221393190853	0	1
997.25667940411518	28.720321096053191	0	1
997.22648406722897	28.820332876907287	0	1
1031.4151323290914	29.793793725302777	0	1
1031.2506379565768	35.028089530208462	0	1
987.46418158772326	33.551083995720916	0	1
987.62233658495904	28.51851038300989	0	1
996.14069372674226	54.726505587581549	0	1
996.27245101720371	52.212426718684085	0	1
996.16241439420241	54.828693293712817	0	1
1062.3832194851282	58.299178630863338	0	1
1064.5570361211112	56.344281037269937	0	1
1064.586626803266	55.79262096518292	0	1
1064.6148624015457	55.240889876159237	0	1
1062.6572966018484	53.069475703742867	0	1
996.43649151092279	49.598990366592353	0	1
996.40420830766504	49.698347849786607	0	1
1030.5649718081638	51.387588229275778	0	1
1030.2908946914436	56.617291156396249	0	1
986.54497348612279	54.22361519914935	0	1
986.80848806704546	49.195457461354408	0	1
1080.762918836308	22.638755893908872	0	1
987.81730781638544	20.691822887032707	0	1
1080.0517793368658	45.267581681264787	0	1
987.16732631389539	41.374569656676016	0	1
986.59266666666667	0	0	20
984.64585140465761	61.948666103810694	0	20
985.15133333333335	0	0	20
983.20736221341633	61.858164034995781	0	20
[NumSegments] = 56
0	1	0.9608888888888889	0	0	2
3	2	-1	4	0	2
5	4	0.9608888888888889	0	0	2
7	6	-1	4	0	2
9	8	0.9608888888888889	0	0	2
7	10	-1	3	0	2
11	3	-1	3	0	2
10	12	-1	2	0	2
12	11	-1	2	0	2
13	14	-1	10	0	1
16	15	-1	10	0	1
17	18	0.9608888888888889	0	0	1
19	17	0.9608888888888889	0	0	1
20	28	0.9608888888888889	0	0	1
22	21	0.9608888888888889	0	0	1
23	22	0.9608888888888889	0	0	1
25	27	0.9608888888888889	0	0	1
26	25	0.9608888888888889	0	0	1
18	26	0.9608888888888889	0	0	1
27	24	0.9608888888888889	0	0	1
28	19	0.9608888888888889	0	0	1
27	28	0.9608888888888889	0	0	1
17	29	0.9608888888888889	0	0	1
30	26	0.9608888888888889	0	0	1
31	32	0.9608888888888889	0	0	1
33	31	0.9608888888888889	0	0	1
34	42	0.9608888888888889	0	0	1
36	35	0.9608888888888889	0	0	1
37	36	0.9608888888888889	0	0	1
39	41	0.9608888888888889	0	0	1
40	39	0.9608888888888889	0	0	1
32	40	0.9608888888888889	0	0	1
41	38	0.9608888888888889	0	0	1
42	33	0.9608888888888889	0	0	1
41	42	0.9608888888888889	0	0	1
31	43	0.9608888888888889	0	0	1
44	40	0.9608888888888889	0	0	1
45	46	0.9608888888888889	0	0	1
47	45	0.9608888888888889	0	0	1
48	56	0.9608888888888889	0	0	1
50	49	0.9608888888888889	0	0	1
51	50	0.9608888888888889	0	0	1
53	55	0.9608888888888889	0	0	1
54	53	0.9608888888888889	0	0	1
46	54	0.9608888888888889	0	0	1
55	52	0.9608888888888889	0	0	1
56	47	0.9608888888888889	0	0	1
55	56	0.9608888888888889	0	0	1
45	57	0.9608888888888889	0	0	1
58	54	0.9608888888888889	0	0	1
59	60	0.9608888888888889	0	0	1
61	62	0.9608888888888889	0	0	1
63	14	0.09608888888888889	7	0	20
64	16	0.09608888888888889	7	0	20
65	6	0.09608888888888889	5	0	20
66	2	0.09608888888888889	5	0	20
[NumArcSegments] = 29
0	2	1.7999999999999998	0.01399164334873805	0	0	2	0.01399164334873805
1	5	1.6200000000000008	0.014160322353476163	0	0	2	0.014160322353476163
0	4	34.610964277281411	0.28347844036731729	0	0	2	0.28347844036731729
5	3	0.17999999999999983	0.014160322353476164	0	0	2	0.014160322353476164
6	0	1.7999999999999998	0.01399164334873805	0	0	2	0.01399164334873805
7	9	0.17999999999999994	0.014160322353476163	0	0	2	0.014160322353476163
8	0	34.610964277281411	0.2834784403673174	0	0	2	0.2834784403673174
9	1	1.6200000000000001	0.014160322353476159	0	0	2	0.014160322353476159
10	11	3.6000000000000001	0.016953316432127594	0	0	2	0.016953316432127594
13	59	1.2	0.9608888888888889	1	0	1	0.063
14	30	0.45400912748623634	0.01393041077390769	0	0	1	0.01393041077390769
21	20	89.929634610383232	6.6538727063166316	0	0	1	6.6538727063166316
24	23	89.929634610385591	6.6538727063166618	0	0	1	6.6538727063166618
29	60	0.45400912748623651	0.01393041077390769	0	0	1	0.01393041077390769
30	29	0.29198174502752688	0.01393041077390769	0	0	1	0.01393041077390769
35	34	89.929634610384824	6.6538727063168199	0	0	1	6.6538727063168199
38	37	89.929634610383744	6.653872706316653	0	0	1	6.653872706316653
43	62	0.45400912748623562	0.01393041077390769	0	0	1	0.01393041077390769
44	43	0.29198174502752694	0.01393041077390769	0	0	1	0.01393041077390769
49	48	89.929634610378912	6.6538727063165499	0	0	1	6.6538727063165499
52	51	89.929634610377121	6.6538727063166032	0	0	1	6.6538727063166032
57	16	0.45400912748623606	0.01393041077390769	0	0	1	0.01393041077390769
58	57	0.29198174502752705	0.01393041077390769	0	0	1	0.01393041077390769
59	61	1.2000000000000002	0.9608888888888889	1	0	1	0.091999999999999998
60	44	0.45400912748623634	0.01393041077390769	0	0	1	0.01393041077390769
61	15	1.2000000000000002	0.9608888888888889	1	0	1	0.059999999999999998
62	58	0.45400912748623601	0.01393041077390769	0	0	1	0.01393041077390769
63	64	3.6000000000000001	0.09608888888888889	11	0	20	0.0076
65	66	3.6000000000000001	0.09608888888888889	11	0	20	0.0076
[NumHoles] = 0
[NumBlockLabels] = 20
975.82746760090708	44.482732580127191	8	0.9608888888888889	0	-178.20000000000007	201	1	0
976.69498888896806	16.87775759314113	9	0.9608888888888889	0	-178.20000000000002	202	1	0
973.96844793463515	59.744316730208297	7	0.9608888888888889	0	0	2	1	0
975.797920370979	1.5295598825424968	7	0.9608888888888889	0	0	2	1	0
891.48586837063431	28.016072073303473	1	0.9608888888888889	0	0	22	1	0
405.72969804926146	12.750569432584618	7	0.9608888888888889	0	0	2	1	0
1014.6852203290191	10.626147211624559	3	0.9608888888888889	1	0	1	1	0
1048.8857003641222	10.98430689334673	3	0.9608888888888889	1	0	1	1	0
992.78240289017606	10.396773059137134	7	0.9608888888888889	0	0	10	1	0
1073.4649420086887	11.24170951913896	1	0.9608888888888889	0	0	12	1	0
1014.2401458557226	31.873780655509211	3	0.9608888888888889	3	0	1	-1	0
1048.4256244299461	32.948102600002031	3	0.9608888888888889	3	0	1	-1	0
992.34693571650325	31.185758809131105	7	0.9608888888888889	0	0	10	1	0
1072.9940848067756	33.720197572079812	1	0.9608888888888889	0	0	12	1	0
1013.3501921335038	53.107433205760046	3	0.9608888888888889	2	0	1	1	0
1047.5056743661039	54.897446179911995	3	0.9608888888888889	2	0	1	1	0
991.4761923794523	51.961065454612424	7	0.9608888888888889	0	0	10	1	0
1072.0525769364801	56.183894831902592	1	0.9608888888888889	0	0	12	1	0
986.82615380322511	31.012261247957106	7	0.09608888888888889	0	0	20	1	0
983.94490955854417	30.921714499787889	7	0.09608888888888889	0	0	20	1	0
