[Format]      =  4.0
[Frequency]   =  0
[Precision]   =  1e-008
[MinAngle]    =  15
[DoSmartMesh] =  1
[Depth]       =  300
[LengthUnits] =  millimeters
[ProblemType] =  planar
[Coordinates] =  cartesian
[ACSolver]    =  0
[PrevType]    =  0
[PrevSoln]    =  ""
[Comment]     =  "Add comments here."
[PointProps]   = 0
[BdryProps]   = 11
  <BeginBdry>
    <BdryName> = "A=0"
    <BdryType> = 0
    <A_0> = 0
    <A_1> = 0
    <A_2> = 0
    <Phi> = 0
    <c0> = 0
    <c0i> = 0
    <c1> = 0
    <c1i> = 0
    <Mu_ssd> = 0
    <Sigma_ssd> = 0
    <innerangle> = 0
    <outerangle> = 0
  <EndBdry>
  <BeginBdry>
    <BdryName> = "APr1"
    <BdryType> = 5
    <A_0> = 0
    <A_1> = 0
    <A_2> = 0
    <Phi> = 0
    <c0> = 0
    <c0i> = 0
    <c1> = 0
    <c1i> = 0
    <Mu_ssd> = 0
    <Sigma_ssd> = 0
    <innerangle> = 0
    <outerangle> = 0
  <EndBdry>
  <BeginBdry>
    <BdryName> = "APr2"
    <BdryType> = 5
    <A_0> = 0
    <A_1> = 0
    <A_2> = 0
    <Phi> = 0
    <c0> = 0
    <c0i> = 0
    <c1> = 0
    <c1i> = 0
    <Mu_ssd> = 0
    <Sigma_ssd> = 0
    <innerangle> = 0
    <outerangle> = 0
  <EndBdry>
  <BeginBdry>
    <BdryName> = "APr3"
    <BdryType> = 5
    <A_0> = 0
    <A_1> = 0
    <A_2> = 0
    <Phi> = 0
    <c0> = 0
    <c0i> = 0
    <c1> = 0
    <c1i> = 0
    <Mu_ssd> = 0
    <Sigma_ssd> = 0
    <innerangle> = 0
    <outerangle> = 0
  <EndBdry>
  <BeginBdry>
    <BdryName> = "APg1"
    <BdryType> = 5
    <A_0> = 0
    <A_1> = 0
    <A_2> = 0
    <Phi> = 0
    <c0> = 0
    <c0i> = 0
    <c1> = 0
    <c1i> = 0
    <Mu_ssd> = 0
    <Sigma_ssd> = 0
    <innerangle> = 0
    <outerangle> = 0
  <EndBdry>
  <BeginBdry>
    <BdryName> = "APg2"
    <BdryType> = 5
    <A_0> = 0
    <A_1> = 0
    <A_2> = 0
    <Phi> = 0
    <c0> = 0
    <c0i> = 0
    <c1> = 0
    <c1i> = 0
    <Mu_ssd> = 0
    <Sigma_ssd> = 0
    <innerangle> = 0
    <outerangle> = 0
  <EndBdry>
  <BeginBdry>
    <BdryName> = "APg3"
    <BdryType> = 5
    <A_0> = 0
    <A_1> = 0
    <A_2> = 0
    <Phi> = 0
    <c0> = 0
    <c0i> = 0
    <c1> = 0
    <c1i> = 0
    <Mu_ssd> = 0
    <Sigma_ssd> = 0
    <innerangle> = 0
    <outerangle> = 0
  <EndBdry>
  <BeginBdry>
    <BdryName> = "APs1"
    <BdryType> = 5
    <A_0> = 0
    <A_1> = 0
    <A_2> = 0
    <Phi> = 0
    <c0> = 0
    <c0i> = 0
    <c1> = 0
    <c1i> = 0
    <Mu_ssd> = 0
    <Sigma_ssd> = 0
    <innerangle> = 0
    <outerangle> = 0
  <EndBdry>
  <BeginBdry>
    <BdryName> = "APs2"
    <BdryType> = 5
    <A_0> = 0
    <A_1> = 0
    <A_2> = 0
    <Phi> = 0
    <c0> = 0
    <c0i> = 0
    <c1> = 0
    <c1i> = 0
    <Mu_ssd> = 0
    <Sigma_ssd> = 0
    <innerangle> = 0
    <outerangle> = 0
  <EndBdry>
  <BeginBdry>
    <BdryName> = "APs3"
    <BdryType> = 5
    <A_0> = 0
    <A_1> = 0
    <A_2> = 0
    <Phi> = 0
    <c0> = 0
    <c0i> = 0
    <c1> = 0
    <c1i> = 0
    <Mu_ssd> = 0
    <Sigma_ssd> = 0
    <innerangle> = 0
    <outerangle> = 0
  <EndBdry>
  <BeginBdry>
    <BdryName> = "AGap"
    <BdryType> = 7
    <A_0> = 0
    <A_1> = 0
    <A_2> = 0
    <Phi> = 0
    <c0> = 0
    <c0i> = 0
    <c1> = 0
    <c1i> = 0
    <Mu_ssd> = 0
    <Sigma_ssd> = 0
    <innerangle> = 2.5
    <outerangle> = 0
  <EndBdry>
[BlockProps]  = 7
  <BeginBlock>
    <BlockName> = "M600-50A"
    <Mu_x> = 1
    <Mu_y> = 1
    <H_c> = 0
    <H_cAngle> = 0
    <J_re> = 0
    <J_im> = 0
    <Sigma> = 0
    <d_lam> = 0
    <Phi_h> = 0
    <Phi_hx> = 0
    <Phi_hy> = 0
    <LamType> = 0
    <LamFill> = 1
    <NStrands> = 0
    <WireD> = 0
    <BHPoints> = 208
      0	0
      0.0061294119999999999	8.2635015680000006
      0.012398954	15.54584049
      0.018188152999999999	21.42337126
      0.023698273999999998	26.396066560000001
      0.028962854999999999	30.670770340000001
      0.034031080999999998	34.409892589999998
      0.038937833999999998	37.72521158
      0.043710287	40.697869570000002
      0.048369641999999997	43.388214720000001
      0.052932743999999997	45.842257519999997
      0.057413198999999998	48.095830579999998
      0.061822165999999998	50.17736026
      0.066168929000000001	52.109762629999999
      0.070461307000000001	53.911772880000001
      0.074705967999999998	55.598898519999999
      0.078908651999999996	57.184116670000002
      0.083074354000000003	58.67839326
      0.087207454000000004	60.091076020000003
      0.091311829999999997	61.430196219999999
      0.095390935999999996	62.702703470000003
      0.099447875000000005	63.914650479999999
      0.10348545000000001	65.071340269999993
      0.107506212	66.177444339999994
      0.111512495	67.237098649999993
      0.115506446	68.253982050000005
      0.119490053	69.231381029999994
      0.123465163	70.172243330000001
      0.127433505	71.079222909999999
      0.131396704	71.954717669999994
      0.13535628999999999	72.800901379999999
      0.139313718	73.619750830000001
      0.14327037200000001	74.413069070000006
      0.147227575	75.182505329999998
      0.151186599	75.929572239999999
      0.15514867099999999	76.655660710000006
      0.15911497799999999	77.362052919999996
      0.16308667299999999	78.049933670000001
      0.167064883	78.720400249999997
      0.171050709	79.374471249999999
      0.17504523399999999	80.013094219999999
      0.17904952399999999	80.637152520000001
      0.183064634	81.247471390000001
      0.18709161099999999	81.844823349999999
      0.19113149500000001	82.429933079999998
      0.19518532499999999	83.003481679999993
      0.19925414	83.566110629999997
      0.203338983	84.118425299999998
      0.20744090200000001	84.6609981
      0.21156095499999999	85.194371430000004
      0.21570021	85.719060249999998
      0.21985974999999999	86.23555451
      0.224040674	86.744321339999999
      0.228244101	87.245807119999995
      0.232471172	87.740439260000002
      0.23672305199999999	88.228628009999994
      0.241000933	88.710768049999999
      0.245306038	89.187239969999993
      0.249639624	89.658411700000002
      0.25400298399999999	90.124639849999994
      0.258397449	90.586270990000003
      0.26282439699999999	91.043642790000007
      0.267285249	91.497085290000001
      0.27178147899999999	91.946921900000007
      0.27631461499999999	92.393470609999994
      0.28088624499999998	92.837044969999994
      0.28549801899999999	93.277955219999996
      0.29015165799999998	93.716509279999997
      0.294848956	94.153013889999997
      0.299591787	94.587775629999996
      0.30438211199999998	95.021102040000002
      0.30922198299999998	95.45330276
      0.31411355600000002	95.884690719999995
      0.31905909100000002	96.315583349999997
      0.324060968	96.746303900000001
      0.32912169099999999	97.177182860000002
      0.33424390300000001	97.608559369999995
      0.33943039400000002	98.040782919999998
      0.34468411100000002	98.474215020000003
      0.35000818	98.909231149999997
      0.35540591100000002	99.346222819999994
      0.36088082199999999	99.785599880000007
      0.366436651	100.2277931
      0.37207738099999998	100.67325700000001
      0.37780725700000001	101.1224732
      0.38363081700000001	101.57595360000001
      0.389552911	102.03424510000001
      0.39557873700000001	102.4979336
      0.401713873	102.9676498
      0.40796431599999999	103.44407510000001
      0.41433652900000001	103.9279489
      0.420837509	104.4200783
      0.42747497499999998	104.9213567
      0.43425898400000001	105.43288579999999
      0.44146202099999998	105.9749185
      0.44856258700000001	106.5079061
      0.45587690400000003	107.05707719999999
      0.46342101400000002	107.62377619999999
      0.47120716099999999	108.2090887
      0.47924850299999999	108.8142005
      0.48755929799999997	109.4404164
      0.496155022	110.0891769
      0.50505251799999995	110.7620768
      0.51427015700000001	111.4608879
      0.52382802100000003	112.1875854
      0.53374812500000002	112.944379
      0.54405466000000002	113.73375040000001
      0.55477427700000004	114.558498
      0.56593642099999997	115.4217907
      0.57757370900000005	116.3272333
      0.58972237000000005	117.2789456
      0.60242275199999995	118.28165920000001
      0.61571989900000001	119.3408371
      0.62966422099999997	120.4628209
      0.64431222899999996	121.65501310000001
      0.65972736300000001	122.92610569999999
      0.67598086099999999	124.28636400000001
      0.69315263800000004	125.74798269999999
      0.71133206000000004	127.3255305
      0.73061842099999996	129.03650049999999
      0.75112078999999998	130.90198509999999
      0.772956635	132.94748089999999
      0.79624826999999998	135.20380520000001
      0.82111564500000001	137.70804709999999
      0.84766332799999999	140.50436830000001
      0.87595905799999996	143.6442744
      0.90600166900000001	147.18571779999999
      0.93767904199999996	151.19014369999999
      0.97072398500000001	155.71669249999999
      1.0046871660000001	160.81373919999999
      1.0389539999999999	166.5100477
      1.0728218	172.80985770000001
      1.1056189649999999	179.69557180000001
      1.1368151129999999	187.13741469999999
      1.166076154	195.10516089999999
      1.1932571599999999	203.57694960000001
      1.2183581130000001	212.54344710000001
      1.2414717689999999	222.00841339999999
      1.262740478	231.98749659999999
      1.2823264919999999	242.50660869999999
      1.3003940249999999	253.6005657
      1.317099609	265.31223169999998
      1.332587655	277.69219570000001
      1.346989049	290.79894300000001
      1.360421377	304.69948410000001
      1.3729899480000001	319.47042970000001
      1.3847891750000001	335.19953839999999
      1.395904035	351.98780690000001
      1.406411522	369.95222330000001
      1.416382027	389.22936779999998
      1.4258806550000001	409.98013700000001
      1.4349684949999999	432.3959911
      1.443703884	456.70731569999998
      1.452143746	483.19477810000001
      1.460345062	512.205018
      1.468366627	544.17275689999997
      1.476271267	579.65265699999998
      1.484128812	619.36640990000001
      1.4920203320000001	664.27439319999996
      1.5000444559999999	715.68841520000001
      1.5083273020000001	775.45608200000004
      1.517038858	846.27605440000002
      1.52642144	932.26565330000005
      1.5368418420000001	1040.044543
      1.5488919160000001	1180.938134
      1.5635876129999999	1375.704356
      1.5827254589999999	1664.518061
      1.609038255	2120.3213700000001
      1.6429877180000001	2803.4219309999999
      1.6763000130000001	3588.174364
      1.7038913950000001	4346.5592559999996
      1.7268422349999999	5076.0393119999999
      1.746445904	5791.6494789999997
      1.7635818270000001	6506.5344940000004
      1.778835427	7231.1495919999998
      1.792609184	7974.1327339999998
      1.805191346	8743.1111569999994
      1.8167966790000001	9545.295204
      1.8275911469999999	10387.927960000001
      1.837707435	11278.663500000001
      1.8472551399999999	12225.930109999999
      1.8563277979999999	13239.325269999999
      1.865008022	14330.08987
      1.873371527	15511.71947
      1.8814906259999999	16800.793989999998
      1.88943763	18218.15107
      1.8972886259999999	19790.607090000001
      1.905128269	21553.57647
      1.913056538	23555.22162
      1.921199232	25863.341659999998
      1.92972568	28577.465530000001
      1.938881257	31851.611560000001
      1.949053186	35941.14198
      1.960921235	41311.621829999996
      1.975868577	48939.738250000002
      1.9972472800000001	61282.289870000001
      2.0280781640000001	81252.957920000001
      2.0737002590000002	113566.1776
      2.1433819129999998	165850.06529999999
      2.250195926	248560.18210000001
      2.3541325240000002	331270.29889999999
      2.4580691219999999	413980.41570000001
      2.5620057200000002	496690.53249999997
      2.665942319	579400.64930000005
      2.7698789170000002	662110.76610000001
      2.873815515	744820.88289999997
      2.9777521130000002	827530.99970000004
      3.081688711	910241.1165
  <EndBlock>
  <BeginBlock>
    <BlockName> = "ShaftAir"
    <Mu_x> = 1
    <Mu_y> = 1
    <H_c> = 0
    <H_cAngle> = 0
    <J_re> = 0
    <J_im> = 0
    <Sigma> = 0
    <d_lam> = 0
    <Phi_h> = 0
    <Phi_hx> = 0
    <Phi_hy> = 0
    <LamType> = 0
    <LamFill> = 1
    <NStrands> = 0
    <WireD> = 0
    <BHPoints> = 3
      -100	-7.9577471545947675e-011
      0	0
      100	7.9577471545947675e-011
  <EndBlock>
  <BeginBlock>
    <BlockName> = "Copper"
    <Mu_x> = 1
    <Mu_y> = 1
    <H_c> = 0
    <H_cAngle> = 0
    <J_re> = 0
    <J_im> = 0
    <Sigma> = 58
    <d_lam> = 0
    <Phi_h> = 0
    <Phi_hx> = 0
    <Phi_hy> = 0
    <LamType> = 0
    <LamFill> = 1
    <NStrands> = 0
    <WireD> = 0
    <BHPoints> = 0
  <EndBlock>
  <BeginBlock>
    <BlockName> = "Aluminium"
    <Mu_x> = 1
    <Mu_y> = 1
    <H_c> = 0
    <H_cAngle> = 0
    <J_re> = 0
    <J_im> = 0
    <Sigma> = 29
    <d_lam> = 0
    <Phi_h> = 0
    <Phi_hx> = 0
    <Phi_hy> = 0
    <LamType> = 0
    <LamFill> = 1
    <NStrands> = 0
    <WireD> = 0
    <BHPoints> = 0
  <EndBlock>
  <BeginBlock>
    <BlockName> = "Air"
    <Mu_x> = 1
    <Mu_y> = 1
    <H_c> = 0
    <H_cAngle> = 0
    <J_re> = 0
    <J_im> = 0
    <Sigma> = 0
    <d_lam> = 0
    <Phi_h> = 0
    <Phi_hx> = 0
    <Phi_hy> = 0
    <LamType> = 0
    <LamFill> = 1
    <NStrands> = 0
    <WireD> = 0
    <BHPoints> = 0
  <EndBlock>
  <BeginBlock>
    <BlockName> = "DW235"
    <Mu_x> = 1
    <Mu_y> = 1
    <H_c> = 0
    <H_cAngle> = 0
    <J_re> = 0
    <J_im> = 0
    <Sigma> = 0
    <d_lam> = 0
    <Phi_h> = 0
    <Phi_hx> = 0
    <Phi_hy> = 0
    <LamType> = 0
    <LamFill> = 1
    <NStrands> = 0
    <WireD> = 0
    <BHPoints> = 0
  <EndBlock>
  <BeginBlock>
    <BlockName> = "Air"
    <Mu_x> = 1
    <Mu_y> = 1
    <H_c> = 0
    <H_cAngle> = 0
    <J_re> = 0
    <J_im> = 0
    <Sigma> = 0
    <d_lam> = 0
    <Phi_h> = 0
    <Phi_hx> = 0
    <Phi_hy> = 0
    <LamType> = 0
    <LamFill> = 1
    <NStrands> = 0
    <WireD> = 0
    <BHPoints> = 0
  <EndBlock>
[CircuitProps]  = 6
  <BeginCircuit>
    <CircuitName> = "fase1"
    <TotalAmps_re> = 5744.0149764069756
    <TotalAmps_im> = 0
    <CircuitType> = 1
  <EndCircuit>
  <BeginCircuit>
    <CircuitName> = "fase2"
    <TotalAmps_re> = -1564.5162352407463
    <TotalAmps_im> = -0
    <CircuitType> = 1
  <EndCircuit>
  <BeginCircuit>
    <CircuitName> = "fase3"
    <TotalAmps_re> = -4179.4987411662269
    <TotalAmps_im> = -0
    <CircuitType> = 1
  <EndCircuit>
  <BeginCircuit>
    <CircuitName> = "fase1n"
    <TotalAmps_re> = -5744.0149764069756
    <TotalAmps_im> = -0
    <CircuitType> = 1
  <EndCircuit>
  <BeginCircuit>
    <CircuitName> = "fase2n"
    <TotalAmps_re> = 1564.5162352407463
    <TotalAmps_im> = 0
    <CircuitType> = 1
  <EndCircuit>
  <BeginCircuit>
    <CircuitName> = "fase3n"
    <TotalAmps_re> = 4179.4987411662269
    <TotalAmps_im> = 0
    <CircuitType> = 1
  <EndCircuit>
[NumPoints] = 129
1305.3776053113261	102.73544558863449	0	2
1288.1500150611907	101.37960483147367	0	2
1303.7589013190402	123.30302992188334	0	2
1313.0820995911913	141.11327313770798	0	2
1312.973333916415	141.19824046833276	0	2
1285.3614765641939	136.82392588113214	0	2
1278.0335870146462	100.58342467724218	0	2
1262.2152728464109	99.33849635311401	0	2
1274.4683481930456	145.88407907785859	0	2
1296.4013879631905	149.35793130646883	0	2
1309.9811114789668	167.47251622513929	0	2
1309.8696115882747	167.55610288993336	0	2
1257.4992341191903	159.26144996490774	0	2
1250.689568717966	98.431403765849851	0	2
1236.2381529775444	97.294052681046509	0	2
1245.1221853155103	169.17171712223382	0	2
1294.2865621218341	176.95858942660806	0	2
1306.3972479529079	193.4522852372578	0	2
1306.2838250285404	193.53556732344398	0	2
1229.619413046619	181.39311733887772	0	2
1306.996309303612	82.167861255385645	0	2
1318.9908594037765	66.035361222119974	0	2
1318.8947566895192	65.93629716402657	0	2
1290.9385535581876	65.935283781815201	0	2
1281.5988258362468	55.282770276625754	0	2
1303.8052637060398	55.282770276625747	0	2
1320.051543692256	39.515542741319102	0	2
1319.954492385433	39.415542741320266	0	2
1266.9313115736315	39.415542741320273	0	2
1256.2569521204218	27.691090409465872	0	2
1306.0341690679254	27.691090409465843	0	2
1320.5759347405628	13.294988023218579	0	2
1320.4769364292088	13.194988023215302	0	2
1242.8568929084697	13.194988023215302	0	2
1327.5	0	0	20
428.56999999999999	0	0	2
1311.1562721400453	207.66675234090647	0	20
423.29359212885817	67.043118682291748	0	2
0	0	0	2
1500	0	0	1
1329.5	0	0	20
1481.5325108927066	234.65169756034629	0	1
1313.1316488212356	207.97962127098694	0	20
1339.5923414614483	22.757592550664352	0	1
1339.6606812041766	17.537118967321323	0	1
1341.024923612026	25.937806998799864	0	1
1449.9508530318483	28.790132843438123	0	1
1460.0499032653747	19.113100213441637	0	1
1450.2076289070644	9.1750213448089912	0	1
1341.2443604965763	9.1750213448089912	0	1
1339.7290209469049	12.316645383978294	0	1
1399.9581605568426	9.1750213448089948	0	1
1399.7186039194219	27.474755107936254	0	1
1329.3075083778299	22.622956710501953	0	1
1329.4441878632865	12.182009543815894	0	1
1338.5375722992844	57.816233568139879	0	1
1338.7425446908235	52.599337836622411	0	1
1339.8864152305218	61.032858865114108	0	1
1448.7003532686253	66.735555712733557	0	1
1459.049257992795	57.326201476051722	0	1
1449.470504912915	47.133887431728908	0	1
1340.5445754930927	44.28156158709065	0	1
1338.9475170823625	47.382442105104921	0	1
1399.2382558004883	45.818509696227053	0	1
1398.5197500683789	64.105701735925152	0	1
1328.2597879265224	57.412418320332321	0	1
1328.6697327096006	46.978626857297357	0	1
1336.5654363465101	92.835250227113136	0	1
1336.9069009090213	87.625507747165813	0	1
1337.8296156288384	96.086081858621526	0	1
1446.4569866474694	104.63524136565887	0	1
1457.0486532399239	95.500014223677795	0	1
1447.7399862373654	85.060450306593324	0	1
1338.9260481992619	79.357753458973875	0	1
1337.2483654715327	82.415765267218504	0	1
1397.5593830371188	82.430596329784947	0	1
1396.3624206382592	100.69271351809552	0	1
1326.3017445646271	92.162532326460223	0	1
1326.9846736896498	81.743047366565605	0	1
1333.6772852065972	127.79064224280492	0	1
1334.155007917326	122.5916235116911	0	1
1334.8559344346834	131.07345225122992	0	1
1443.222290659804	142.46321525079912	0	1
1454.0494601213265	133.6083760318871	0	1
1445.0172588914747	122.92871699768193	0	1
1336.3898878728437	114.37955749064457	0	1
1334.6327306280548	117.39260478057729	0	1
1394.9226928822645	118.98618915011856	0	1
1393.2480941548936	137.21071554413385	0	1
1323.4347202372576	126.84948273655279	0	1
1324.3901656587154	116.45144527432514	0	1
1329.8750982740703	162.65845293558849	0	1
1330.4887517257337	157.47372110104968	0	1
1330.9674096606084	165.97099144693036	0	1
1438.9984822046822	180.19355196440281	0	1
1450.0537341341528	171.62516933305142	0	1
1441.3041888965622	160.71273448656669	0	1
1332.9378326714418	149.32297148699752	0	1
1331.102405177397	152.2889892665109	0	1
1391.3299923916516	155.46023477990141	0	1
1389.1789050220891	173.63468019956639	0	1
1319.660679859677	161.44949684745075	0	1
1320.8879867630035	151.0800331783731	0	1
1325.1614813779299	197.41478564970106	0	1
1325.9106450031047	192.2478940679535	0	1
1326.1667063072578	200.75478241552906	0	1
1433.7884560694354	217.80039301835887	0	1
1445.064213749404	209.5243393160234	0	1
1436.6033210053311	198.3866074950146	0	1
1328.5722484612575	184.16404697754217	0	1
1326.6598086282795	187.08100248620596	0	1
1386.7837438227377	191.82773573017815	0	1
1384.1576420588171	209.93964431843597	0	1
1314.9822099706419	195.93886153779175	0	1
1316.4805372209914	185.60507837429668	0	1
1499.485987463336	39.26542246180972	0	1
1329.0444135550033	34.802252775317349	0	1
1497.9443021318607	78.503934364415741	0	1
1327.6779664562059	69.580653824993817	0	1
1495.3760005996919	117.68864359176742	0	1
1325.4015951981937	104.31136777016985	0	1
1491.78284305241	156.79269490148022	0	1
1322.2168598921194	138.97059191434528	0	1
1487.1672920607157	195.78928833007737	0	1
1318.1259431964809	173.53457255655857	0	1
1328.8333333333333	0	0	20
1312.4731899275055	207.87533162762676	0	20
1328.1666666666667	0	0	20
1311.8147310337756	207.77104198426665	0	20
[NumSegments] = 106
0	1	4.2857142857142856	0	0	2
2	0	4.2857142857142856	0	0	2
5	4	4.2857142857142856	0	0	2
1	5	4.2857142857142856	0	0	2
6	7	4.2857142857142856	0	0	2
8	6	4.2857142857142856	0	0	2
9	8	4.2857142857142856	0	0	2
12	11	4.2857142857142856	0	0	2
7	12	4.2857142857142856	0	0	2
13	14	4.2857142857142856	0	0	2
15	13	4.2857142857142856	0	0	2
16	15	4.2857142857142856	0	0	2
19	18	4.2857142857142856	0	0	2
14	19	4.2857142857142856	0	0	2
20	0	4.2857142857142856	0	0	2
23	22	4.2857142857142856	0	0	2
1	23	4.2857142857142856	0	0	2
24	6	4.2857142857142856	0	0	2
25	24	4.2857142857142856	0	0	2
28	27	4.2857142857142856	0	0	2
7	28	4.2857142857142856	0	0	2
29	13	4.2857142857142856	0	0	2
30	29	4.2857142857142856	0	0	2
33	32	4.2857142857142856	0	0	2
14	33	4.2857142857142856	0	0	2
34	35	-1	4	0	2
37	36	-1	4	0	2
35	38	-1	2	0	2
38	37	-1	2	0	2
39	40	-1	10	0	1
42	41	-1	10	0	1
43	44	4.2857142857142856	0	0	1
45	43	4.2857142857142856	0	0	1
46	52	4.2857142857142856	0	0	1
49	51	4.2857142857142856	0	0	1
50	49	4.2857142857142856	0	0	1
44	50	4.2857142857142856	0	0	1
51	48	4.2857142857142856	0	0	1
52	45	4.2857142857142856	0	0	1
51	52	4.2857142857142856	0	0	1
43	53	4.2857142857142856	0	0	1
54	50	4.2857142857142856	0	0	1
55	56	4.2857142857142856	0	0	1
57	55	4.2857142857142856	0	0	1
58	64	4.2857142857142856	0	0	1
61	63	4.2857142857142856	0	0	1
62	61	4.2857142857142856	0	0	1
56	62	4.2857142857142856	0	0	1
63	60	4.2857142857142856	0	0	1
64	57	4.2857142857142856	0	0	1
63	64	4.2857142857142856	0	0	1
55	65	4.2857142857142856	0	0	1
66	62	4.2857142857142856	0	0	1
67	68	4.2857142857142856	0	0	1
69	67	4.2857142857142856	0	0	1
70	76	4.2857142857142856	0	0	1
73	75	4.2857142857142856	0	0	1
74	73	4.2857142857142856	0	0	1
68	74	4.2857142857142856	0	0	1
75	72	4.2857142857142856	0	0	1
76	69	4.2857142857142856	0	0	1
75	76	4.2857142857142856	0	0	1
67	77	4.2857142857142856	0	0	1
78	74	4.2857142857142856	0	0	1
79	80	4.2857142857142856	0	0	1
81	79	4.2857142857142856	0	0	1
82	88	4.2857142857142856	0	0	1
85	87	4.2857142857142856	0	0	1
86	85	4.2857142857142856	0	0	1
80	86	4.2857142857142856	0	0	1
87	84	4.2857142857142856	0	0	1
88	81	4.2857142857142856	0	0	1
87	88	4.2857142857142856	0	0	1
79	89	4.2857142857142856	0	0	1
90	86	4.2857142857142856	0	0	1
91	92	4.2857142857142856	0	0	1
93	91	4.2857142857142856	0	0	1
94	100	4.2857142857142856	0	0	1
97	99	4.2857142857142856	0	0	1
98	97	4.2857142857142856	0	0	1
92	98	4.2857142857142856	0	0	1
99	96	4.2857142857142856	0	0	1
100	93	4.2857142857142856	0	0	1
99	100	4.2857142857142856	0	0	1
91	101	4.2857142857142856	0	0	1
102	98	4.2857142857142856	0	0	1
103	104	4.2857142857142856	0	0	1
105	103	4.2857142857142856	0	0	1
106	112	4.2857142857142856	0	0	1
109	111	4.2857142857142856	0	0	1
110	109	4.2857142857142856	0	0	1
104	110	4.2857142857142856	0	0	1
111	108	4.2857142857142856	0	0	1
112	105	4.2857142857142856	0	0	1
111	112	4.2857142857142856	0	0	1
103	113	4.2857142857142856	0	0	1
114	110	4.2857142857142856	0	0	1
115	116	4.2857142857142856	0	0	1
117	118	4.2857142857142856	0	0	1
119	120	4.2857142857142856	0	0	1
121	122	4.2857142857142856	0	0	1
123	124	4.2857142857142856	0	0	1
125	40	0.42857142857142855	7	0	20
126	42	0.42857142857142855	7	0	20
127	34	0.42857142857142855	5	0	20
128	36	0.42857142857142855	5	0	20
[NumArcSegments] = 52
2	3	67.529523817470775	3.3944030829748586	0	0	2	3.3944030829748586
3	4	92.866123768894624	10	0	0	2	10
9	10	88.285371565037181	3.7769168586069162	0	0	2	3.7769168586069162
10	11	91.714628434799337	10	0	0	2	10
16	17	89.423190330758885	4.2213047421653638	0	0	2	4.2213047421653638
17	18	90.576809669302691	10	0	0	2	10
21	20	67.529523817471016	3.3944030829762375	0	0	2	3.3944030829762375
22	21	92.866123801963468	10	0	0	2	10
26	25	88.285371565038048	3.7769168586020276	0	0	2	3.7769168586020276
27	26	91.714628434960673	10	0	0	2	10
31	30	89.423190330757421	4.2213047421607675	0	0	2	4.2213047421607675
32	31	90.576809669374427	10	0	0	2	10
34	36	9.0000000000000018	0.046243567000066439	0	0	2	0.046243567000066439
35	37	9.0000000000000018	0.14323992624912665	0	0	2	0.14323992624912665
39	115	1.5	4.2857142857142856	1	0	1	0.14000000000000001
40	54	0.52500000000000002	0.046174001649182554	0	0	1	0.046174001649182554
47	46	90.555010429602021	6.2369176925056973	0	0	1	6.2369176925056973
48	47	90.555010429601566	6.2369176925057852	0	0	1	6.2369176925057852
53	116	0.52499999999999991	0.046174001649182554	0	0	1	0.046174001649182554
54	53	0.44999999999999973	0.046174001649182554	0	0	1	0.046174001649182554
59	58	90.555010429600955	6.2369176925057008	0	0	1	6.2369176925057008
60	59	90.555010429601168	6.2369176925057843	0	0	1	6.2369176925057843
65	118	0.52499999999999991	0.046174001649182554	0	0	1	0.046174001649182554
66	65	0.44999999999999973	0.046174001649182554	0	0	1	0.046174001649182554
71	70	90.55501042960222	6.23691769250585	0	0	1	6.23691769250585
72	71	90.555010429601083	6.2369176925057843	0	0	1	6.2369176925057843
77	120	0.52499999999999969	0.046174001649182554	0	0	1	0.046174001649182554
78	77	0.45000000000000023	0.046174001649182554	0	0	1	0.046174001649182554
83	82	90.555010429601509	6.2369176925055889	0	0	1	6.2369176925055889
84	83	90.555010429600713	6.2369176925057905	0	0	1	6.2369176925057905
89	122	0.52499999999999913	0.046174001649182554	0	0	1	0.046174001649182554
90	89	0.44999999999999934	0.046174001649182554	0	0	1	0.046174001649182554
95	94	90.555010429601865	6.2369176925056626	0	0	1	6.2369176925056626
96	95	90.555010429601523	6.2369176925057808	0	0	1	6.2369176925057808
101	124	0.52500000000000069	0.046174001649182554	0	0	1	0.046174001649182554
102	101	0.45000000000000084	0.046174001649182554	0	0	1	0.046174001649182554
107	106	90.555010429602348	6.2369176925056049	0	0	1	6.2369176925056049
108	107	90.555010429601396	6.2369176925057719	0	0	1	6.2369176925057719
113	42	0.52500000000000235	0.046174001649182554	0	0	1	0.046174001649182554
114	113	0.4500000000000009	0.046174001649182554	0	0	1	0.046174001649182554
115	117	1.5000000000000011	4.2857142857142856	1	0	1	0.20999999999999999
116	66	0.52500000000000047	0.046174001649182554	0	0	1	0.046174001649182554
117	119	1.5000000000000007	4.2857142857142856	1	0	1	0.29999999999999999
118	78	0.52500000000000069	0.046174001649182554	0	0	1	0.046174001649182554
119	121	1.5000000000000002	4.2857142857142856	1	0	1	0.25
120	90	0.52500000000000024	0.046174001649182554	0	0	1	0.046174001649182554
121	123	1.5	4.2857142857142856	1	0	1	0.25
122	102	0.52500000000000091	0.046174001649182554	0	0	1	0.046174001649182554
123	41	1.5000000000000013	4.2857142857142856	1	0	1	0.14000000000000001
124	114	0.52500000000000069	0.046174001649182554	0	0	1	0.046174001649182554
125	126	9	0.42857142857142855	11	0	20	0.027
127	128	9	0.42857142857142855	11	0	20	0.027
[NumHoles] = 0
[NumBlockLabels] = 34
1309.9375613127063	135.20412894525214	7	4.2857142857142856	0	0	2	1	0
1305.4173703434776	161.46218347384718	7	4.2857142857142856	0	0	2	1	0
1302.3225450344273	187.98214732910327	7	4.2857142857142856	0	0	2	1	0
1314.9612977804145	71.379215919229182	7	4.2857142857142856	0	0	2	1	0
1314.6037665945764	44.737951919755055	7	4.2857142857142856	0	0	2	1	0
1315.695680079232	18.060355485299894	7	4.2857142857142856	0	0	2	1	0
831.74350734777556	65.459633668564507	1	4.2857142857142856	0	0	22	1	0
213.62443085900333	16.812607328041253	7	4.2857142857142856	0	0	2	1	0
1369.7495317211544	17.931003596846974	3	4.2857142857142856	1	0	1	1	0
1429.9272327551103	18.718772855898276	3	4.2857142857142856	1	0	1	1	0
1334.5233898569093	17.469868139711878	7	4.2857142857142856	0	0	10	1	0
1479.9606973131931	19.373746785202265	1	4.2857142857142856	0	0	12	1	0
1368.8107738126284	53.780721776349253	3	4.2857142857142856	1	0	1	1	0
1428.947232056239	56.143489655802959	3	4.2857142857142856	1	0	1	1	0
1333.6087741864319	52.397631444152054	7	4.2857142857142856	0	0	10	1	0
1478.9464061769409	58.107962557300453	1	4.2857142857142856	0	0	12	1	0
1366.9339013733552	89.593581335553012	3	4.2857142857142856	3	0	1	-1	0
1426.987902302023	93.529728512327438	3	4.2857142857142856	3	0	1	-1	0
1331.780169677372	87.289484029320505	7	4.2857142857142856	0	0	10	1	0
1476.9185190489166	96.80235403441938	1	4.2857142857142856	0	0	12	1	0
1364.1202007179527	125.34503792940866	3	4.2857142857142856	3	0	1	-1	0
1424.0505863192056	130.85186676484378	3	4.2857142857142856	3	0	1	-1	0
1329.0388295639191	122.12151276234226	7	4.2857142857142856	0	0	10	1	0
1473.8784257416621	135.43040201346858	1	4.2857142857142856	0	0	12	1	0
1360.3716002163021	161.01058929539178	3	4.2857142857142856	2	0	1	1	0
1420.137297197439	168.08432568407602	3	4.2857142857142856	2	0	1	1	0
1325.3866326236539	156.86984551062238	7	4.2857142857142856	0	0	10	1	0
1469.8282097832744	173.96563275987725	1	4.2857142857142856	0	0	12	1	0
1355.690668971941	196.56579204613027	3	4.2857142857142856	2	0	1	1	0
1415.2507169096141	205.20158800248387	3	4.2857142857142856	2	0	1	1	0
1320.826081889928	191.51066750261316	7	4.2857142857142856	0	0	10	1	0
1464.7706469894586	212.38163615136958	1	4.2857142857142856	0	0	12	1	0
1325.0692894202828	104.28521473826058	7	0.42857142857142855	0	0	20	1	0
1323.7400663086382	104.18060261062344	7	0.42857142857142855	0	0	20	1	0
