[Format]      =  4.0
[Frequency]   =  0
[Precision]   =  1e-008
[MinAngle]    =  15
[DoSmartMesh] =  1
[Depth]       =  110
[LengthUnits] =  millimeters
[ProblemType] =  planar
[Coordinates] =  cartesian
[ACSolver]    =  0
[PrevType]    =  0
[PrevSoln]    =  ""
[Comment]     =  "Add comments here."
[PointProps]   = 0
[BdryProps]   = 11
  <BeginBdry>
    <BdryName> = "A=0"
    <BdryType> = 0
    <A_0> = 0
    <A_1> = 0
    <A_2> = 0
    <Phi> = 0
    <c0> = 0
    <c0i> = 0
    <c1> = 0
    <c1i> = 0
    <Mu_ssd> = 0
    <Sigma_ssd> = 0
    <innerangle> = 0
    <outerangle> = 0
  <EndBdry>
  <BeginBdry>
    <BdryName> = "APr1"
    <BdryType> = 5
    <A_0> = 0
    <A_1> = 0
    <A_2> = 0
    <Phi> = 0
    <c0> = 0
    <c0i> = 0
    <c1> = 0
    <c1i> = 0
    <Mu_ssd> = 0
    <Sigma_ssd> = 0
    <innerangle> = 0
    <outerangle> = 0
  <EndBdry>
  <BeginBdry>
    <BdryName> = "APr2"
    <BdryType> = 5
    <A_0> = 0
    <A_1> = 0
    <A_2> = 0
    <Phi> = 0
    <c0> = 0
    <c0i> = 0
    <c1> = 0
    <c1i> = 0
    <Mu_ssd> = 0
    <Sigma_ssd> = 0
    <innerangle> = 0
    <outerangle> = 0
  <EndBdry>
  <BeginBdry>
    <BdryName> = "APr3"
    <BdryType> = 5
    <A_0> = 0
    <A_1> = 0
    <A_2> = 0
    <Phi> = 0
    <c0> = 0
    <c0i> = 0
    <c1> = 0
    <c1i> = 0
    <Mu_ssd> = 0
    <Sigma_ssd> = 0
    <innerangle> = 0
    <outerangle> = 0
  <EndBdry>
  <BeginBdry>
    <BdryName> = "APg1"
    <BdryType> = 5
    <A_0> = 0
    <A_1> = 0
    <A_2> = 0
    <Phi> = 0
    <c0> = 0
    <c0i> = 0
    <c1> = 0
    <c1i> = 0
    <Mu_ssd> = 0
    <Sigma_ssd> = 0
    <innerangle> = 0
    <outerangle> = 0
  <EndBdry>
  <BeginBdry>
    <BdryName> = "APg2"
    <BdryType> = 5
    <A_0> = 0
    <A_1> = 0
    <A_2> = 0
    <Phi> = 0
    <c0> = 0
    <c0i> = 0
    <c1> = 0
    <c1i> = 0
    <Mu_ssd> = 0
    <Sigma_ssd> = 0
    <innerangle> = 0
    <outerangle> = 0
  <EndBdry>
  <BeginBdry>
    <BdryName> = "APg3"
    <BdryType> = 5
    <A_0> = 0
    <A_1> = 0
    <A_2> = 0
    <Phi> = 0
    <c0> = 0
    <c0i> = 0
    <c1> = 0
    <c1i> = 0
    <Mu_ssd> = 0
    <Sigma_ssd> = 0
    <innerangle> = 0
    <outerangle> = 0
  <EndBdry>
  <BeginBdry>
    <BdryName> = "APs1"
    <BdryType> = 5
    <A_0> = 0
    <A_1> = 0
    <A_2> = 0
    <Phi> = 0
    <c0> = 0
    <c0i> = 0
    <c1> = 0
    <c1i> = 0
    <Mu_ssd> = 0
    <Sigma_ssd> = 0
    <innerangle> = 0
    <outerangle> = 0
  <EndBdry>
  <BeginBdry>
    <BdryName> = "APs2"
    <BdryType> = 5
    <A_0> = 0
    <A_1> = 0
    <A_2> = 0
    <Phi> = 0
    <c0> = 0
    <c0i> = 0
    <c1> = 0
    <c1i> = 0
    <Mu_ssd> = 0
    <Sigma_ssd> = 0
    <innerangle> = 0
    <outerangle> = 0
  <EndBdry>
  <BeginBdry>
    <BdryName> = "APs3"
    <BdryType> = 5
    <A_0> = 0
    <A_1> = 0
    <A_2> = 0
    <Phi> = 0
    <c0> = 0
    <c0i> = 0
    <c1> = 0
    <c1i> = 0
    <Mu_ssd> = 0
    <Sigma_ssd> = 0
    <innerangle> = 0
    <outerangle> = 0
  <EndBdry>
  <BeginBdry>
    <BdryName> = "AGap"
    <BdryType> = 7
    <A_0> = 0
    <A_1> = 0
    <A_2> = 0
    <Phi> = 0
    <c0> = 0
    <c0i> = 0
    <c1> = 0
    <c1i> = 0
    <Mu_ssd> = 0
    <Sigma_ssd> = 0
    <innerangle> = 5
    <outerangle> = 0
  <EndBdry>
[BlockProps]  = 7
  <BeginBlock>
    <BlockName> = "M600-50A"
    <Mu_x> = 1
    <Mu_y> = 1
    <H_c> = 0
    <H_cAngle> = 0
    <J_re> = 0
    <J_im> = 0
    <Sigma> = 0
    <d_lam> = 0
    <Phi_h> = 0
    <Phi_hx> = 0
    <Phi_hy> = 0
    <LamType> = 0
    <LamFill> = 1
    <NStrands> = 0
    <WireD> = 0
    <BHPoints> = 208
      0	0
      0.0061294119999999999	8.2635015680000006
      0.012398954	15.54584049
      0.018188152999999999	21.42337126
      0.023698273999999998	26.396066560000001
      0.028962854999999999	30.670770340000001
      0.034031080999999998	34.409892589999998
      0.038937833999999998	37.72521158
      0.043710287	40.697869570000002
      0.048369641999999997	43.388214720000001
      0.052932743999999997	45.842257519999997
      0.057413198999999998	48.095830579999998
      0.061822165999999998	50.17736026
      0.066168929000000001	52.109762629999999
      0.070461307000000001	53.911772880000001
      0.074705967999999998	55.598898519999999
      0.078908651999999996	57.184116670000002
      0.083074354000000003	58.67839326
      0.087207454000000004	60.091076020000003
      0.091311829999999997	61.430196219999999
      0.095390935999999996	62.702703470000003
      0.099447875000000005	63.914650479999999
      0.10348545000000001	65.071340269999993
      0.107506212	66.177444339999994
      0.111512495	67.237098649999993
      0.115506446	68.253982050000005
      0.119490053	69.231381029999994
      0.123465163	70.172243330000001
      0.127433505	71.079222909999999
      0.131396704	71.954717669999994
      0.13535628999999999	72.800901379999999
      0.139313718	73.619750830000001
      0.14327037200000001	74.413069070000006
      0.147227575	75.182505329999998
      0.151186599	75.929572239999999
      0.15514867099999999	76.655660710000006
      0.15911497799999999	77.362052919999996
      0.16308667299999999	78.049933670000001
      0.167064883	78.720400249999997
      0.171050709	79.374471249999999
      0.17504523399999999	80.013094219999999
      0.17904952399999999	80.637152520000001
      0.183064634	81.247471390000001
      0.18709161099999999	81.844823349999999
      0.19113149500000001	82.429933079999998
      0.19518532499999999	83.003481679999993
      0.19925414	83.566110629999997
      0.203338983	84.118425299999998
      0.20744090200000001	84.6609981
      0.21156095499999999	85.194371430000004
      0.21570021	85.719060249999998
      0.21985974999999999	86.23555451
      0.224040674	86.744321339999999
      0.228244101	87.245807119999995
      0.232471172	87.740439260000002
      0.23672305199999999	88.228628009999994
      0.241000933	88.710768049999999
      0.245306038	89.187239969999993
      0.249639624	89.658411700000002
      0.25400298399999999	90.124639849999994
      0.258397449	90.586270990000003
      0.26282439699999999	91.043642790000007
      0.267285249	91.497085290000001
      0.27178147899999999	91.946921900000007
      0.27631461499999999	92.393470609999994
      0.28088624499999998	92.837044969999994
      0.28549801899999999	93.277955219999996
      0.29015165799999998	93.716509279999997
      0.294848956	94.153013889999997
      0.299591787	94.587775629999996
      0.30438211199999998	95.021102040000002
      0.30922198299999998	95.45330276
      0.31411355600000002	95.884690719999995
      0.31905909100000002	96.315583349999997
      0.324060968	96.746303900000001
      0.32912169099999999	97.177182860000002
      0.33424390300000001	97.608559369999995
      0.33943039400000002	98.040782919999998
      0.34468411100000002	98.474215020000003
      0.35000818	98.909231149999997
      0.35540591100000002	99.346222819999994
      0.36088082199999999	99.785599880000007
      0.366436651	100.2277931
      0.37207738099999998	100.67325700000001
      0.37780725700000001	101.1224732
      0.38363081700000001	101.57595360000001
      0.389552911	102.03424510000001
      0.39557873700000001	102.4979336
      0.401713873	102.9676498
      0.40796431599999999	103.44407510000001
      0.41433652900000001	103.9279489
      0.420837509	104.4200783
      0.42747497499999998	104.9213567
      0.43425898400000001	105.43288579999999
      0.44146202099999998	105.9749185
      0.44856258700000001	106.5079061
      0.45587690400000003	107.05707719999999
      0.46342101400000002	107.62377619999999
      0.47120716099999999	108.2090887
      0.47924850299999999	108.8142005
      0.48755929799999997	109.4404164
      0.496155022	110.0891769
      0.50505251799999995	110.7620768
      0.51427015700000001	111.4608879
      0.52382802100000003	112.1875854
      0.53374812500000002	112.944379
      0.54405466000000002	113.73375040000001
      0.55477427700000004	114.558498
      0.56593642099999997	115.4217907
      0.57757370900000005	116.3272333
      0.58972237000000005	117.2789456
      0.60242275199999995	118.28165920000001
      0.61571989900000001	119.3408371
      0.62966422099999997	120.4628209
      0.64431222899999996	121.65501310000001
      0.65972736300000001	122.92610569999999
      0.67598086099999999	124.28636400000001
      0.69315263800000004	125.74798269999999
      0.71133206000000004	127.3255305
      0.73061842099999996	129.03650049999999
      0.75112078999999998	130.90198509999999
      0.772956635	132.94748089999999
      0.79624826999999998	135.20380520000001
      0.82111564500000001	137.70804709999999
      0.84766332799999999	140.50436830000001
      0.87595905799999996	143.6442744
      0.90600166900000001	147.18571779999999
      0.93767904199999996	151.19014369999999
      0.97072398500000001	155.71669249999999
      1.0046871660000001	160.81373919999999
      1.0389539999999999	166.5100477
      1.0728218	172.80985770000001
      1.1056189649999999	179.69557180000001
      1.1368151129999999	187.13741469999999
      1.166076154	195.10516089999999
      1.1932571599999999	203.57694960000001
      1.2183581130000001	212.54344710000001
      1.2414717689999999	222.00841339999999
      1.262740478	231.98749659999999
      1.2823264919999999	242.50660869999999
      1.3003940249999999	253.6005657
      1.317099609	265.31223169999998
      1.332587655	277.69219570000001
      1.346989049	290.79894300000001
      1.360421377	304.69948410000001
      1.3729899480000001	319.47042970000001
      1.3847891750000001	335.19953839999999
      1.395904035	351.98780690000001
      1.406411522	369.95222330000001
      1.416382027	389.22936779999998
      1.4258806550000001	409.98013700000001
      1.4349684949999999	432.3959911
      1.443703884	456.70731569999998
      1.452143746	483.19477810000001
      1.460345062	512.205018
      1.468366627	544.17275689999997
      1.476271267	579.65265699999998
      1.484128812	619.36640990000001
      1.4920203320000001	664.27439319999996
      1.5000444559999999	715.68841520000001
      1.5083273020000001	775.45608200000004
      1.517038858	846.27605440000002
      1.52642144	932.26565330000005
      1.5368418420000001	1040.044543
      1.5488919160000001	1180.938134
      1.5635876129999999	1375.704356
      1.5827254589999999	1664.518061
      1.609038255	2120.3213700000001
      1.6429877180000001	2803.4219309999999
      1.6763000130000001	3588.174364
      1.7038913950000001	4346.5592559999996
      1.7268422349999999	5076.0393119999999
      1.746445904	5791.6494789999997
      1.7635818270000001	6506.5344940000004
      1.778835427	7231.1495919999998
      1.792609184	7974.1327339999998
      1.805191346	8743.1111569999994
      1.8167966790000001	9545.295204
      1.8275911469999999	10387.927960000001
      1.837707435	11278.663500000001
      1.8472551399999999	12225.930109999999
      1.8563277979999999	13239.325269999999
      1.865008022	14330.08987
      1.873371527	15511.71947
      1.8814906259999999	16800.793989999998
      1.88943763	18218.15107
      1.8972886259999999	19790.607090000001
      1.905128269	21553.57647
      1.913056538	23555.22162
      1.921199232	25863.341659999998
      1.92972568	28577.465530000001
      1.938881257	31851.611560000001
      1.949053186	35941.14198
      1.960921235	41311.621829999996
      1.975868577	48939.738250000002
      1.9972472800000001	61282.289870000001
      2.0280781640000001	81252.957920000001
      2.0737002590000002	113566.1776
      2.1433819129999998	165850.06529999999
      2.250195926	248560.18210000001
      2.3541325240000002	331270.29889999999
      2.4580691219999999	413980.41570000001
      2.5620057200000002	496690.53249999997
      2.665942319	579400.64930000005
      2.7698789170000002	662110.76610000001
      2.873815515	744820.88289999997
      2.9777521130000002	827530.99970000004
      3.081688711	910241.1165
  <EndBlock>
  <BeginBlock>
    <BlockName> = "ShaftAir"
    <Mu_x> = 1
    <Mu_y> = 1
    <H_c> = 0
    <H_cAngle> = 0
    <J_re> = 0
    <J_im> = 0
    <Sigma> = 0
    <d_lam> = 0
    <Phi_h> = 0
    <Phi_hx> = 0
    <Phi_hy> = 0
    <LamType> = 0
    <LamFill> = 1
    <NStrands> = 0
    <WireD> = 0
    <BHPoints> = 3
      -100	-7.9577471545947675e-011
      0	0
      100	7.9577471545947675e-011
  <EndBlock>
  <BeginBlock>
    <BlockName> = "Copper"
    <Mu_x> = 1
    <Mu_y> = 1
    <H_c> = 0
    <H_cAngle> = 0
    <J_re> = 0
    <J_im> = 0
    <Sigma> = 58
    <d_lam> = 0
    <Phi_h> = 0
    <Phi_hx> = 0
    <Phi_hy> = 0
    <LamType> = 0
    <LamFill> = 1
    <NStrands> = 0
    <WireD> = 0
    <BHPoints> = 0
  <EndBlock>
  <BeginBlock>
    <BlockName> = "Aluminium"
    <Mu_x> = 1
    <Mu_y> = 1
    <H_c> = 0
    <H_cAngle> = 0
    <J_re> = 0
    <J_im> = 0
    <Sigma> = 29
    <d_lam> = 0
    <Phi_h> = 0
    <Phi_hx> = 0
    <Phi_hy> = 0
    <LamType> = 0
    <LamFill> = 1
    <NStrands> = 0
    <WireD> = 0
    <BHPoints> = 0
  <EndBlock>
  <BeginBlock>
    <BlockName> = "Air"
    <Mu_x> = 1
    <Mu_y> = 1
    <H_c> = 0
    <H_cAngle> = 0
    <J_re> = 0
    <J_im> = 0
    <Sigma> = 0
    <d_lam> = 0
    <Phi_h> = 0
    <Phi_hx> = 0
    <Phi_hy> = 0
    <LamType> = 0
    <LamFill> = 1
    <NStrands> = 0
    <WireD> = 0
    <BHPoints> = 0
  <EndBlock>
  <BeginBlock>
    <BlockName> = "DW235"
    <Mu_x> = 1
    <Mu_y> = 1
    <H_c> = 0
    <H_cAngle> = 0
    <J_re> = 0
    <J_im> = 0
    <Sigma> = 0
    <d_lam> = 0
    <Phi_h> = 0
    <Phi_hx> = 0
    <Phi_hy> = 0
    <LamType> = 0
    <LamFill> = 1
    <NStrands> = 0
    <WireD> = 0
    <BHPoints> = 0
  <EndBlock>
  <BeginBlock>
    <BlockName> = "Air"
    <Mu_x> = 1
    <Mu_y> = 1
    <H_c> = 0
    <H_cAngle> = 0
    <J_re> = 0
    <J_im> = 0
    <Sigma> = 0
    <d_lam> = 0
    <Phi_h> = 0
    <Phi_hx> = 0
    <Phi_hy> = 0
    <LamType> = 0
    <LamFill> = 1
    <NStrands> = 0
    <WireD> = 0
    <BHPoints> = 0
  <EndBlock>
[CircuitProps]  = 6
  <BeginCircuit>
    <CircuitName> = "fase1"
    <TotalAmps_re> = 1355.8051266919911
    <TotalAmps_im> = 0
    <CircuitType> = 1
  <EndCircuit>
  <BeginCircuit>
    <CircuitName> = "fase2"
    <TotalAmps_re> = -975.15905438138782
    <TotalAmps_im> = -0
    <CircuitType> = 1
  <EndCircuit>
  <BeginCircuit>
    <CircuitName> = "fase3"
    <TotalAmps_re> = -380.64607231060256
    <TotalAmps_im> = -0
    <CircuitType> = 1
  <EndCircuit>
  <BeginCircuit>
    <CircuitName> = "fase1n"
    <TotalAmps_re> = -1355.8051266919911
    <TotalAmps_im> = -0
    <CircuitType> = 1
  <EndCircuit>
  <BeginCircuit>
    <CircuitName> = "fase2n"
    <TotalAmps_re> = 975.15905438138782
    <TotalAmps_im> = 0
    <CircuitType> = 1
  <EndCircuit>
  <BeginCircuit>
    <CircuitName> = "fase3n"
    <TotalAmps_re> = 380.64607231060256
    <TotalAmps_im> = 0
    <CircuitType> = 1
  <EndCircuit>
[NumPoints] = 131
55.663392675921877	14.914961115489735	0	2
54.408047684386396	14.578592438785348	0	2
56.793156802355654	20.098013415665402	0	2
56.996857619837364	21.309169891480671	0	2
56.287785961755098	21.466560733627244	0	2
52.939608978273029	14.18512547334767	0	2
50.742755243085917	13.596480289114988	0	2
54.990900775256939	22.314831991845796	0	2
55.450300963457401	25.059661271892601	0	2
54.861154993503575	25.21594236655266	0	2
49.273565933131252	13.202812199984198	0	2
46.170074148501854	12.371234082576125	0	2
53.139879402449168	25.790538503032266	0	2
53.674134013926157	28.667225848607945	0	2
52.065705733557806	29.036458796977975	0	2
59.233323259785692	10.991188217611128	0	2
60.015311580404152	10.044146350337929	0	2
59.479932932474632	9.5533060536748344	0	2
58.780933044284787	8.1702390015083033	0	2
60.551199917793149	6.0228472100366499	0	2
60.119125088605941	5.5929308269528821	0	2
58.915754768078543	4.2346781803179514	0	2
60.816776506494442	2.0105211660426789	0	2
59.608453229715153	0.88654191265583471	0	2
61.249999999999993	0	0	20
25	0	0	2
53.044055981796866	30.624999999999993	0	20
21.650635094610969	12.499999999999998	0	2
0	0	0	2
87.5	0	0	1
61.574999999999996	0	0	20
75.777222831138388	43.749999999999993	0	1
53.325514238026813	30.787499999999994	0	20
62.07539604751787	3.5170300266341714	0	1
62.110552918118792	2.7118053049741015	0	1
62.390627135535219	4.2780651946072652	0	1
82.115065719528644	5.1392527815254541	0	1
82.241445099224578	5.0245379865099471	0	1
82.317410757421825	3.5940557714563308	0	1
82.366408911428991	2.1623961297418868	0	1
82.250508496591493	2.0371031704493685	0	1
62.526069912598068	1.175915583531179	0	1
62.145709788719714	1.9065805833140317	0	1
72.274396003527556	1.6015366924408101	0	1
72.138953226464707	4.7036863035168963	0	1
61.475967114568753	3.4908583942149698	0	1
61.546280855770597	1.8804089508948301	0	1
61.532651060245485	8.9138739144388968	0	1
61.637854107034677	8.1147774391186402	0	1
61.780354013480277	9.6994873134483583	0	1
81.354677709907861	12.276495916667194	0	1
81.490574231072785	12.173232334785453	0	1
81.690925556946254	10.754814379798001	0	1
81.864514617619946	9.3328731057559029	0	1
81.759975239780388	9.1979555372605475	0	1
62.185651543352805	6.620946934041708	0	1
61.743057153823869	7.3156809637983828	0	1
71.859786986530082	7.894571027134746	0	1
71.454489456657555	10.973111406541395	0	1
60.93778414342119	8.835558199106865	0	1
61.148190236999589	7.237365248466352	0	1
60.521605443974074	14.242877839410513	0	1
60.696054008242143	13.455991217114899	0	1
60.699895093385052	15.04709047712354	0	1
79.97513147961719	19.320307505132192	0	1
80.119510887668511	19.229281034594592	0	1
80.442723086652833	17.833722356774935	0	1
80.739581936425395	16.432321282092257	0	1
80.647199203371727	16.288805908555769	0	1
61.37196281713959	12.015588880547115	0	1
60.870502572510212	12.669104594819288	0	1
70.898281600439404	14.12752290943987	0	1
70.226213876684866	17.159024506016294	0	1
59.935827839702114	14.113014071047649	0	1
60.284724968238244	12.539240826456426	0	1
59.04995386632951	19.463484863939442	0	1
59.292320289167449	18.694796776999276	0	1
59.157473320030441	20.280176196586172	0	1
77.986926208461966	26.217079887562505	0	1
78.138689688925695	26.138983294773123	0	1
78.582302921025786	24.776904938320836	0	1
79.000172284802147	23.40670957136502	0	1
78.920649284915143	23.255688631436968	0	1
60.091196396483632	17.318784940460631	0	1
59.534686712005389	17.926108690059113	0	1
69.397197481816519	20.252955811972594	0	1
68.463474405363314	23.214347068098135	0	1
58.47772369588057	19.283061384236877	0	1
58.962456541556449	17.745685210356548	0	1
57.128896484425191	24.535963016280309	0	1
57.437336211010347	23.791323645183763	0	1
57.16482745445137	25.358917529687588	0	1
75.405193339066813	32.914324461742815	0	1
75.563185880219351	32.84975210892879	0	1
76.123823980877916	31.531520312581875	0	1
76.659523620483313	30.20295866744204	0	1
76.593465571809418	30.045581521664204	0	1
58.353099687193989	22.490174589608976	0	1
57.745775937595511	23.04668427408722	0	1
67.367958787183468	26.224251491707133	0	1
66.179686554440863	29.092994431785744	0	1
56.574568764918411	24.306352956861254	0	1
57.19144821808873	22.817074214668164	0	1
54.773053704903546	29.421707674847752	0	1
55.145219322675622	28.706784174834418	0	1
54.737122734877381	30.244662188255035	0	1
72.249581417460746	39.361071152556775	0	1
72.412600600665414	39.310514474312875	0	1
73.085996775413903	38.046161778011651	0	1
73.735449693126682	36.769345011014757	0	1
73.68335933730323	36.606809394493432	0	1
56.170900654719865	27.490400430191698	0	1
55.517384940447698	27.99186067482108	0	1
64.82600924829427	31.995964782953795	0	1
63.392231328451778	34.750226541017135	0	1
54.240847204996612	29.14465850690673	0	1
54.985178440540757	27.714811506880061	0	1
87.167036083027739	7.6261274904200897	0	1
61.340688534999231	5.3666148596870515	0	1
86.170678388568206	15.194215545856403	0	1
60.639537391726705	10.692386539841234	0	1
84.518509800293472	22.646666446470565	0	1
59.476882753749379	15.936782702187713	0	1
82.223104318766985	29.926762540996009	0	1
57.86157312489231	21.059890325278047	0	1
79.301931365706864	36.979097902311196	0	1
55.805901986781713	26.022719466683562	0	1
61.466666666666661	0	0	20
53.231694819283497	30.733333333333327	0	20
61.358333333333327	0	0	20
53.137875400540182	30.67916666666666	0	20
[NumSegments] = 96
0	1	0.83333333333333326	0	0	2
5	6	0.83333333333333326	0	0	2
10	11	0.83333333333333326	0	0	2
24	25	-1	4	0	2
27	26	-1	4	0	2
25	28	-1	2	0	2
28	27	-1	2	0	2
29	30	-1	10	0	1
32	31	-1	10	0	1
33	34	0.83333333333333326	0	0	1
35	33	0.83333333333333326	0	0	1
36	44	0.83333333333333326	0	0	1
38	37	0.83333333333333326	0	0	1
39	38	0.83333333333333326	0	0	1
41	43	0.83333333333333326	0	0	1
42	41	0.83333333333333326	0	0	1
34	42	0.83333333333333326	0	0	1
43	40	0.83333333333333326	0	0	1
44	35	0.83333333333333326	0	0	1
43	44	0.83333333333333326	0	0	1
33	45	0.83333333333333326	0	0	1
46	42	0.83333333333333326	0	0	1
47	48	0.83333333333333326	0	0	1
49	47	0.83333333333333326	0	0	1
50	58	0.83333333333333326	0	0	1
52	51	0.83333333333333326	0	0	1
53	52	0.83333333333333326	0	0	1
55	57	0.83333333333333326	0	0	1
56	55	0.83333333333333326	0	0	1
48	56	0.83333333333333326	0	0	1
57	54	0.83333333333333326	0	0	1
58	49	0.83333333333333326	0	0	1
57	58	0.83333333333333326	0	0	1
47	59	0.83333333333333326	0	0	1
60	56	0.83333333333333326	0	0	1
61	62	0.83333333333333326	0	0	1
63	61	0.83333333333333326	0	0	1
64	72	0.83333333333333326	0	0	1
66	65	0.83333333333333326	0	0	1
67	66	0.83333333333333326	0	0	1
69	71	0.83333333333333326	0	0	1
70	69	0.83333333333333326	0	0	1
62	70	0.83333333333333326	0	0	1
71	68	0.83333333333333326	0	0	1
72	63	0.83333333333333326	0	0	1
71	72	0.83333333333333326	0	0	1
61	73	0.83333333333333326	0	0	1
74	70	0.83333333333333326	0	0	1
75	76	0.83333333333333326	0	0	1
77	75	0.83333333333333326	0	0	1
78	86	0.83333333333333326	0	0	1
80	79	0.83333333333333326	0	0	1
81	80	0.83333333333333326	0	0	1
83	85	0.83333333333333326	0	0	1
84	83	0.83333333333333326	0	0	1
76	84	0.83333333333333326	0	0	1
85	82	0.83333333333333326	0	0	1
86	77	0.83333333333333326	0	0	1
85	86	0.83333333333333326	0	0	1
75	87	0.83333333333333326	0	0	1
88	84	0.83333333333333326	0	0	1
89	90	0.83333333333333326	0	0	1
91	89	0.83333333333333326	0	0	1
92	100	0.83333333333333326	0	0	1
94	93	0.83333333333333326	0	0	1
95	94	0.83333333333333326	0	0	1
97	99	0.83333333333333326	0	0	1
98	97	0.83333333333333326	0	0	1
90	98	0.83333333333333326	0	0	1
99	96	0.83333333333333326	0	0	1
100	91	0.83333333333333326	0	0	1
99	100	0.83333333333333326	0	0	1
89	101	0.83333333333333326	0	0	1
102	98	0.83333333333333326	0	0	1
103	104	0.83333333333333326	0	0	1
105	103	0.83333333333333326	0	0	1
106	114	0.83333333333333326	0	0	1
108	107	0.83333333333333326	0	0	1
109	108	0.83333333333333326	0	0	1
111	113	0.83333333333333326	0	0	1
112	111	0.83333333333333326	0	0	1
104	112	0.83333333333333326	0	0	1
113	110	0.83333333333333326	0	0	1
114	105	0.83333333333333326	0	0	1
113	114	0.83333333333333326	0	0	1
103	115	0.83333333333333326	0	0	1
116	112	0.83333333333333326	0	0	1
117	118	0.83333333333333326	0	0	1
119	120	0.83333333333333326	0	0	1
121	122	0.83333333333333326	0	0	1
123	124	0.83333333333333326	0	0	1
125	126	0.83333333333333326	0	0	1
127	30	0.083333333333333329	7	0	20
128	32	0.083333333333333329	7	0	20
129	24	0.083333333333333329	5	0	20
130	26	0.083333333333333329	5	0	20
[NumArcSegments] = 64
2	0	54.593161044452927	2.0638447584921198	0	0	2	2.0638447584921198
2	3	60.092206804908486	9.7325962872599288	0	0	2	9.7325962872599288
3	4	113.97211322925259	10	0	0	2	10
4	1	60.528841010291558	1.6851754750234897	0	0	2	1.6851754750234897
7	5	58.322620361908434	1.3874064666040418	0	0	2	1.3874064666040418
7	8	67.642264160640408	4.7746514241771445	0	0	2	4.7746514241771445
8	9	101.64765173950417	10	0	0	2	10
9	6	69.032704461764411	1.0973276544229402	0	0	2	1.0973276544229402
12	10	64.148624569217759	0.96271479299903584	0	0	2	0.96271479299903584
12	13	77.255192408006735	5.0935193664619725	0	0	2	5.0935193664619725
13	14	97.929081291331997	10	0	0	2	10
14	11	68.96435086987924	0.76458534061072259	0	0	2	0.76458534061072259
0	15	54.593161044452884	2.0638447584920909	0	0	2	2.0638447584920909
16	15	60.092206804908756	9.7325962872589766	0	0	2	9.7325962872589766
17	16	113.97211322925392	10	0	0	2	10
1	17	60.528841010291558	1.6851754750234806	0	0	2	1.6851754750234806
5	18	58.322620361908434	1.3874064666040402	0	0	2	1.3874064666040402
19	18	67.642264160640309	4.774651424177379	0	0	2	4.774651424177379
20	19	101.64765173950381	10	0	0	2	10
6	20	69.032704461764467	1.0973276544229296	0	0	2	1.0973276544229296
10	21	64.148624569217745	0.96271479299903651	0	0	2	0.96271479299903651
22	21	77.255192408007119	5.0935193664622105	0	0	2	5.0935193664622105
23	22	97.929081291331499	10	0	0	2	10
11	23	68.964350869879269	0.76458534061072281	0	0	2	0.76458534061072281
24	26	29.999999999999993	0.19488360378599434	0	0	2	0.19488360378599434
25	27	29.999999999999993	0.47746482927568601	0	0	2	0.47746482927568601
29	117	5	0.83333333333333326	1	0	1	0.41999999999999998
30	46	1.7499999999999989	0.19385498549560945	0	0	1	0.19385498549560945
37	36	89.460167059655987	10	0	0	1	10
40	39	89.460167059665864	10	0	0	1	10
45	118	1.7499999999999991	0.19385498549560945	0	0	1	0.19385498549560945
46	45	1.4999999999999993	0.19385498549560945	0	0	1	0.19385498549560945
51	50	89.460167059659	10	0	0	1	10
54	53	89.460167059668521	10	0	0	1	10
59	120	1.749999999999998	0.19385498549560945	0	0	1	0.19385498549560945
60	59	1.5	0.19385498549560945	0	0	1	0.19385498549560945
65	64	89.460167059657849	10	0	0	1	10
68	67	89.460167059661813	10	0	0	1	10
73	122	1.7500000000000007	0.19385498549560945	0	0	1	0.19385498549560945
74	73	1.4999999999999967	0.19385498549560945	0	0	1	0.19385498549560945
79	78	89.460167059650303	10	0	0	1	10
82	81	89.460167059671505	10	0	0	1	10
87	124	1.749999999999996	0.19385498549560945	0	0	1	0.19385498549560945
88	87	1.5	0.19385498549560945	0	0	1	0.19385498549560945
93	92	89.460167059649024	10	0	0	1	10
96	95	89.460167059671136	10	0	0	1	10
101	126	1.7499999999999967	0.19385498549560945	0	0	1	0.19385498549560945
102	101	1.5	0.19385498549560945	0	0	1	0.19385498549560945
107	106	89.460167059648668	10	0	0	1	10
110	109	89.460167059671036	10	0	0	1	10
115	32	1.749999999999996	0.19385498549560945	0	0	1	0.19385498549560945
116	115	1.4999999999999938	0.19385498549560945	0	0	1	0.19385498549560945
117	119	4.9999999999999991	0.83333333333333326	1	0	1	0.82999999999999996
118	60	1.7499999999999991	0.19385498549560945	0	0	1	0.19385498549560945
119	121	5.0000000000000027	0.83333333333333326	1	0	1	0.70999999999999996
120	74	1.7499999999999978	0.19385498549560945	0	0	1	0.19385498549560945
121	123	4.9999999999999982	0.83333333333333326	1	0	1	0.82999999999999996
122	88	1.7500000000000013	0.19385498549560945	0	0	1	0.19385498549560945
123	125	5.0000000000000027	0.83333333333333326	1	0	1	0.70999999999999996
124	102	1.7500000000000024	0.19385498549560945	0	0	1	0.19385498549560945
125	31	4.9999999999999982	0.83333333333333326	1	0	1	0.45000000000000001
126	116	1.7500000000000056	0.19385498549560945	0	0	1	0.19385498549560945
127	128	30	0.083333333333333329	11	0	20	0.083000000000000004
129	130	30	0.083333333333333329	11	0	20	0.083000000000000004
[NumHoles] = 0
[NumBlockLabels] = 34
56.692600127982715	20.957914680257772	7	0.83333333333333337	0	0	2	1	0
55.100785577405979	24.196811876763686	7	0.83333333333333337	0	0	2	1	0
52.959906383311036	27.831407716206062	7	0.83333333333333337	0	0	2	1	0
59.57618925755483	10.196213540541299	7	0.83333333333333337	0	0	2	1	0
59.817086016894628	6.5953390128326141	7	0.83333333333333337	0	0	2	1	0
59.780328168096048	2.3772470863388193	7	0.83333333333333337	0	0	2	1	0
35.15910990286428	9.4208551050695721	1	0.83333333333333337	0	0	22	1	0
12.074072828613353	3.2352380637815092	7	0.83333333333333337	0	0	2	1	0
67.158613766557451	2.9322084014764771	3	0.83333333333333337	1	0	1	1	0
77.254735463434784	3.3730145944812282	3	0.83333333333333337	1	0	1	1	0
61.81347358101084	2.6988345409973329	7	0.83333333333333337	0	0	10	1	0
84.867065072917185	3.7053760829616151	1	0.83333333333333337	0	0	12	1	0
66.647496164314234	8.7743093279783544	3	0.83333333333333337	1	0	1	1	0
76.666780278873389	10.093373105697784	3	0.83333333333333337	1	0	1	1	0
61.343035723063522	8.0759638625341577	7	0.83333333333333337	0	0	10	1	0
84.221175463577325	11.087928099526255	1	0.83333333333333337	0	0	12	1	0
65.629150873402139	14.549632462421489	3	0.83333333333333337	3	0	1	-1	0
75.495344603722117	16.73691495303467	3	0.83333333333333337	3	0	1	-1	0
60.405740323326015	13.391630222676792	7	0.83333333333333337	0	0	10	1	0
82.934311854823491	18.386094288179468	1	0.83333333333333337	0	0	12	1	0
64.111328116378672	20.214224108517318	3	0.83333333333333337	3	0	1	-1	0
73.749343770801133	23.253078771553405	3	0.83333333333333337	3	0	1	-1	0
59.008720765744762	18.605378190737447	7	0.83333333333333337	0	0	10	1	0
81.016268055747815	25.544331197472367	1	0.83333333333333337	0	0	12	1	0
62.105579440911242	25.724973303465095	3	0.83333333333333337	2	0	1	1	0
71.442065900713047	29.592272620027771	3	0.83333333333333337	2	0	1	1	0
57.162609212696417	23.677527996532081	7	0.83333333333333337	0	0	10	1	0
78.481641537807747	32.508160322263613	1	0.83333333333333337	0	0	12	1	0
59.627169805524318	31.039939918409935	3	0.83333333333333337	2	0	1	1	0
68.591070771221709	35.706251405560977	3	0.83333333333333337	2	0	1	1	0
54.881455687812306	28.569477517390816	7	0.83333333333333337	0	0	10	1	0
75.349722339254143	39.224582718038555	1	0.83333333333333337	0	0	12	1	0
59.424561771492051	15.92276333724466	7	0.083333333333333329	0	0	20	1	0
59.215277842462754	15.866685877472447	7	0.083333333333333329	0	0	20	1	0
