[Format]      =  4.0
[Frequency]   =  0
[Precision]   =  1e-008
[MinAngle]    =  15
[DoSmartMesh] =  1
[Depth]       =  300
[LengthUnits] =  millimeters
[ProblemType] =  planar
[Coordinates] =  cartesian
[ACSolver]    =  0
[PrevType]    =  0
[PrevSoln]    =  ""
[Comment]     =  "Add comments here."
[PointProps]   = 0
[BdryProps]   = 11
  <BeginBdry>
    <BdryName> = "A=0"
    <BdryType> = 0
    <A_0> = 0
    <A_1> = 0
    <A_2> = 0
    <Phi> = 0
    <c0> = 0
    <c0i> = 0
    <c1> = 0
    <c1i> = 0
    <Mu_ssd> = 0
    <Sigma_ssd> = 0
    <innerangle> = 0
    <outerangle> = 0
  <EndBdry>
  <BeginBdry>
    <BdryName> = "APr1"
    <BdryType> = 5
    <A_0> = 0
    <A_1> = 0
    <A_2> = 0
    <Phi> = 0
    <c0> = 0
    <c0i> = 0
    <c1> = 0
    <c1i> = 0
    <Mu_ssd> = 0
    <Sigma_ssd> = 0
    <innerangle> = 0
    <outerangle> = 0
  <EndBdry>
  <BeginBdry>
    <BdryName> = "APr2"
    <BdryType> = 5
    <A_0> = 0
    <A_1> = 0
    <A_2> = 0
    <Phi> = 0
    <c0> = 0
    <c0i> = 0
    <c1> = 0
    <c1i> = 0
    <Mu_ssd> = 0
    <Sigma_ssd> = 0
    <innerangle> = 0
    <outerangle> = 0
  <EndBdry>
  <BeginBdry>
    <BdryName> = "APr3"
    <BdryType> = 5
    <A_0> = 0
    <A_1> = 0
    <A_2> = 0
    <Phi> = 0
    <c0> = 0
    <c0i> = 0
    <c1> = 0
    <c1i> = 0
    <Mu_ssd> = 0
    <Sigma_ssd> = 0
    <innerangle> = 0
    <outerangle> = 0
  <EndBdry>
  <BeginBdry>
    <BdryName> = "APg1"
    <BdryType> = 5
    <A_0> = 0
    <A_1> = 0
    <A_2> = 0
    <Phi> = 0
    <c0> = 0
    <c0i> = 0
    <c1> = 0
    <c1i> = 0
    <Mu_ssd> = 0
    <Sigma_ssd> = 0
    <innerangle> = 0
    <outerangle> = 0
  <EndBdry>
  <BeginBdry>
    <BdryName> = "APg2"
    <BdryType> = 5
    <A_0> = 0
    <A_1> = 0
    <A_2> = 0
    <Phi> = 0
    <c0> = 0
    <c0i> = 0
    <c1> = 0
    <c1i> = 0
    <Mu_ssd> = 0
    <Sigma_ssd> = 0
    <innerangle> = 0
    <outerangle> = 0
  <EndBdry>
  <BeginBdry>
    <BdryName> = "APg3"
    <BdryType> = 5
    <A_0> = 0
    <A_1> = 0
    <A_2> = 0
    <Phi> = 0
    <c0> = 0
    <c0i> = 0
    <c1> = 0
    <c1i> = 0
    <Mu_ssd> = 0
    <Sigma_ssd> = 0
    <innerangle> = 0
    <outerangle> = 0
  <EndBdry>
  <BeginBdry>
    <BdryName> = "APs1"
    <BdryType> = 5
    <A_0> = 0
    <A_1> = 0
    <A_2> = 0
    <Phi> = 0
    <c0> = 0
    <c0i> = 0
    <c1> = 0
    <c1i> = 0
    <Mu_ssd> = 0
    <Sigma_ssd> = 0
    <innerangle> = 0
    <outerangle> = 0
  <EndBdry>
  <BeginBdry>
    <BdryName> = "APs2"
    <BdryType> = 5
    <A_0> = 0
    <A_1> = 0
    <A_2> = 0
    <Phi> = 0
    <c0> = 0
    <c0i> = 0
    <c1> = 0
    <c1i> = 0
    <Mu_ssd> = 0
    <Sigma_ssd> = 0
    <innerangle> = 0
    <outerangle> = 0
  <EndBdry>
  <BeginBdry>
    <BdryName> = "APs3"
    <BdryType> = 5
    <A_0> = 0
    <A_1> = 0
    <A_2> = 0
    <Phi> = 0
    <c0> = 0
    <c0i> = 0
    <c1> = 0
    <c1i> = 0
    <Mu_ssd> = 0
    <Sigma_ssd> = 0
    <innerangle> = 0
    <outerangle> = 0
  <EndBdry>
  <BeginBdry>
    <BdryName> = "AGap"
    <BdryType> = 7
    <A_0> = 0
    <A_1> = 0
    <A_2> = 0
    <Phi> = 0
    <c0> = 0
    <c0i> = 0
    <c1> = 0
    <c1i> = 0
    <Mu_ssd> = 0
    <Sigma_ssd> = 0
    <innerangle> = 3.1111111111111112
    <outerangle> = 0
  <EndBdry>
[BlockProps]  = 13
  <BeginBlock>
    <BlockName> = "M270-35A"
    <Mu_x> = 1
    <Mu_y> = 1
    <H_c> = 0
    <H_cAngle> = 0
    <J_re> = 0
    <J_im> = 0
    <Sigma> = 0
    <d_lam> = 0
    <Phi_h> = 0
    <Phi_hx> = 0
    <Phi_hy> = 0
    <LamType> = 0
    <LamFill> = 1
    <NStrands> = 0
    <WireD> = 0
    <BHPoints> = 200
      0	0
      0.0045422769999999999	3.2767874890000002
      0.0090353559999999996	6.114592773
      0.013222249	8.4602422570000009
      0.017196487	10.462328400000001
      0.020991169	12.199266809999999
      0.024640190999999999	13.72982376
      0.028168996000000002	15.09561901
      0.031597466999999997	16.327217480000002
      0.034941272000000002	17.447599879999999
      0.038212956999999999	18.47443998
      0.041422729999999998	19.421601849999998
      0.044579012000000001	20.300151339999999
      0.047688851999999997	21.119056130000001
      0.050758219	21.885681389999998
      0.053792226999999998	22.60614816
      0.056795300999999999	23.285597330000002
      0.059771310000000001	23.928387470000001
      0.062723663999999998	24.538245379999999
      0.065655396000000005	25.11838217
      0.068569221	25.67158405
      0.071467592999999996	26.200284
      0.074352739000000001	26.70661905
      0.077226698999999996	27.19247648
      0.080091349000000006	27.65953137
      0.082948429000000004	28.109277410000001
      0.085799557999999998	28.54305239
      0.088646256000000007	28.96205934
      0.091489953999999998	29.36738437
      0.094332005999999996	29.760011540000001
      0.097173704999999999	30.140835630000002
      0.100016285	30.510672870000001
      0.102860934	30.870270300000001
      0.105708802	31.220313650000001
      0.108561001	31.561434299999998
      0.11141862	31.894215259999999
      0.114282722	32.21919639
      0.117154355	32.536878999999999
      0.120034552	32.847729870000002
      0.12292433699999999	33.152184810000001
      0.12582473199999999	33.45065185
      0.12873675200000001	33.743513989999997
      0.13166142	34.031131799999997
      0.13459976100000001	34.313845620000002
      0.137552811	34.591977620000002
      0.14052161499999999	34.865833639999998
      0.14350723800000001	35.135704879999999
      0.14651076099999999	35.401869419999997
      0.14953328699999999	35.664593680000003
      0.15257594699999999	35.924133650000002
      0.155639899	36.180736189999998
      0.158726334	36.434640119999997
      0.161836481	36.686077320000003
      0.16497160599999999	36.93527375
      0.16813302299999999	37.182450420000002
      0.17132209400000001	37.427824389999998
      0.17454023399999999	37.671609650000001
      0.17778891699999999	37.914018050000003
      0.18106968000000001	38.155260249999998
      0.18438413100000001	38.395546590000002
      0.18773395400000001	38.635088090000004
      0.191120915	38.87409736
      0.19454686800000001	39.112789630000002
      0.19801376800000001	39.351383830000003
      0.20152367299999999	39.590103640000002
      0.20507876	39.829178749999997
      0.208681327	40.068846100000002
      0.21233381500000001	40.309351300000003
      0.216038808	40.550950149999998
      0.21979905799999999	40.793910310000001
      0.22361749	41.038513199999997
      0.227497227	41.285056060000002
      0.2314416	41.53385428
      0.23545417299999999	41.785244059999997
      0.23953876299999999	42.039585369999998
      0.24369946200000001	42.297265359999997
      0.247940667	42.558702250000003
      0.25226710400000002	42.824349750000003
      0.25668386300000001	43.0947022
      0.26119642799999998	43.370300520000001
      0.26581071499999998	43.651739030000002
      0.27054201700000002	43.94020278
      0.275438138	44.23873004
      0.28051031599999998	44.548036490000001
      0.28576849199999999	44.868763260000001
      0.29122336399999998	45.201605100000002
      0.296886504	45.547319020000003
      0.30277045699999999	45.906731970000003
      0.30888884599999999	46.280749559999997
      0.31525650100000002	46.670366299999998
      0.321889598	47.076677459999999
      0.328805825	47.50089294
      0.33602457000000002	47.944353649999996
      0.34356714500000002	48.408550759999997
      0.351457032	48.895148689999999
      0.35972019	49.406012390000001
      0.36838539799999998	49.943240269999997
      0.37748466600000002	50.509203810000002
      0.38705371900000002	51.106595769999998
      0.39713256899999999	51.738489119999997
      0.40776619800000002	52.408409570000003
      0.41900536300000002	53.120425429999997
      0.43090757000000002	53.879259759999997
      0.44353822799999998	54.690431349999997
      0.45697202599999998	55.560433060000001
      0.47129457299999999	56.49695913
      0.486604327	57.509196449999997
      0.503014823	58.60819978
      0.520657166	59.807376320000003
      0.53968265500000001	61.123111049999999
      0.56026517099999995	62.575567960000001
      0.58260257699999995	64.189698669999999
      0.60691558199999995	65.996464399999994
      0.63344113800000001	68.034201780000004
      0.662415215	70.349880479999996
      0.69403682899999997	72.999622560000006
      0.72840307800000004	76.047204840000006
      0.76540934699999996	79.558509650000005
      0.80463064699999998	83.589963030000007
      0.84524547999999999	88.171938179999998
      0.88609953900000005	93.294734669999997
      0.92594964300000004	98.90894376
      0.963771241	104.9435902
      0.99893980100000002	111.3300564
      1.0312218310000001	118.0174305
      1.0606584889999999	124.9760964
      1.0874410889999999	132.19454709999999
      1.1118223309999999	139.6744898
      1.1340651580000001	147.42664859999999
      1.1544176930000001	155.46782519999999
      1.173103241	163.8190534
      1.1903180360000001	172.50453999999999
      1.2062325739999999	181.55112829999999
      1.220994358	190.98810510000001
      1.234730984	200.84723579999999
      1.2475531	211.16296399999999
      1.2595570490000001	221.97273730000001
      1.270827143	233.31744900000001
      1.281437594	245.2419931
      1.291454146	257.79594609999998
      1.3009354369999999	271.03439809999998
      1.309934159	285.01896390000002
      1.318498043	299.81902289999999
      1.326670706	315.51324579999999
      1.3344924010000001	332.19149570000002
      1.3420006879999999	349.95721329999998
      1.3492310569999999	368.93044570000001
      1.356217531	389.25173360000002
      1.362993272	411.08716509999999
      1.3695912379999999	434.63503709999998
      1.3760449050000001	460.1347695
      1.382389146	487.87903890000001
      1.3886613240000001	518.23060969999995
      1.394902732	551.64618570000005
      1.401160583	588.71104339999999
      1.4074908660000001	630.19074279999995
      1.4139626249999999	677.11087850000001
      1.420664664	730.8848299
      1.4277165590000001	793.52783980000004
      1.435287779	868.03580320000003
      1.4436331710000001	959.10175079999999
      1.453164339	1074.5891859999999
      1.464608755	1228.9034079999999
      1.479413587	1451.8548430000001
      1.5007295060000001	1812.597843
      1.531321148	2396.2922779999999
      1.5749716949999999	3340.7297119999998
      1.6351726849999999	4868.8615820000005
      1.6746062129999999	6056.7860730000002
      1.7053540309999999	7126.7301200000002
      1.7307497590000001	8135.9466300000004
      1.752580204	9119.3875740000003
      1.771845345	10098.25848
      1.789165838	11087.22133
      1.804957089	12097.58993
      1.819514077	13138.977849999999
      1.8330565510000001	14220.25051
      1.845754994	15350.15127
      1.8577465099999999	16537.778849999999
      1.869145125	17793.012470000001
      1.8800488470000001	19126.948680000001
      1.8905448170000001	20552.403480000001
      1.9007133519999999	22084.53774
      1.9106314310000001	23741.68173
      1.920376064	25546.46932
      1.930027954	27527.455720000002
      1.9396760099999999	29721.505959999999
      1.9494234969999999	32177.45292
      1.959397184	34961.935420000002
      1.969762051	38169.180130000001
      1.980746793	41938.394229999998
      1.9926918389999999	46487.096960000003
      2.0061495709999999	52181.595710000001
      2.022124024	59707.652569999998
      2.042772002	70576.241299999994
      2.0725625070000002	88161.987269999998
      2.1158769670000002	116616.322
      2.1803765140000002	162656.4026
      2.2792825830000001	237150.818
      2.3747656959999999	310949.48619999998
  <EndBlock>
  <BeginBlock>
    <BlockName> = "ShaftAir"
    <Mu_x> = 1
    <Mu_y> = 1
    <H_c> = 0
    <H_cAngle> = 0
    <J_re> = 0
    <J_im> = 0
    <Sigma> = 0
    <d_lam> = 0
    <Phi_h> = 0
    <Phi_hx> = 0
    <Phi_hy> = 0
    <LamType> = 0
    <LamFill> = 1
    <NStrands> = 0
    <WireD> = 0
    <BHPoints> = 3
      -100	-7.9577471545947675e-011
      0	0
      100	7.9577471545947675e-011
  <EndBlock>
  <BeginBlock>
    <BlockName> = "Copper"
    <Mu_x> = 1
    <Mu_y> = 1
    <H_c> = 0
    <H_cAngle> = 0
    <J_re> = 0
    <J_im> = 0
    <Sigma> = 58
    <d_lam> = 0
    <Phi_h> = 0
    <Phi_hx> = 0
    <Phi_hy> = 0
    <LamType> = 0
    <LamFill> = 1
    <NStrands> = 0
    <WireD> = 0
    <BHPoints> = 0
  <EndBlock>
  <BeginBlock>
    <BlockName> = "Aluminium"
    <Mu_x> = 1
    <Mu_y> = 1
    <H_c> = 0
    <H_cAngle> = 0
    <J_re> = 0
    <J_im> = 0
    <Sigma> = 29
    <d_lam> = 0
    <Phi_h> = 0
    <Phi_hx> = 0
    <Phi_hy> = 0
    <LamType> = 0
    <LamFill> = 1
    <NStrands> = 0
    <WireD> = 0
    <BHPoints> = 0
  <EndBlock>
  <BeginBlock>
    <BlockName> = "FB14H"
    <Mu_x> = 1.05
    <Mu_y> = 1.05
    <H_c> = 356200
    <H_cAngle> = 0
    <J_re> = 0
    <J_im> = 0
    <Sigma> = 0
    <d_lam> = 0
    <Phi_h> = 0
    <Phi_hx> = 0
    <Phi_hy> = 0
    <LamType> = 0
    <LamFill> = 1
    <NStrands> = 0
    <WireD> = 0
    <BHPoints> = 0
  <EndBlock>
  <BeginBlock>
    <BlockName> = "DW235"
    <Mu_x> = 1
    <Mu_y> = 1
    <H_c> = 0
    <H_cAngle> = 0
    <J_re> = 0
    <J_im> = 0
    <Sigma> = 0
    <d_lam> = 0
    <Phi_h> = 0
    <Phi_hx> = 0
    <Phi_hy> = 0
    <LamType> = 0
    <LamFill> = 1
    <NStrands> = 0
    <WireD> = 0
    <BHPoints> = 0
  <EndBlock>
  <BeginBlock>
    <BlockName> = "Air"
    <Mu_x> = 1
    <Mu_y> = 1
    <H_c> = 0
    <H_cAngle> = 0
    <J_re> = 0
    <J_im> = 0
    <Sigma> = 0
    <d_lam> = 0
    <Phi_h> = 0
    <Phi_hx> = 0
    <Phi_hy> = 0
    <LamType> = 0
    <LamFill> = 1
    <NStrands> = 0
    <WireD> = 0
    <BHPoints> = 0
  <EndBlock>
  <BeginBlock>
    <BlockName> = "FB14H_1"
    <Mu_x> = 1.05
    <Mu_y> = 1.05
    <H_c> = 316415.18448031577
    <H_cAngle> = 0
    <J_re> = 0
    <J_im> = 0
    <Sigma> = 0
    <d_lam> = 0
    <Phi_h> = 0
    <Phi_hx> = 0
    <Phi_hy> = 0
    <LamType> = 0
    <LamFill> = 1
    <NStrands> = 0
    <WireD> = 0
    <BHPoints> = 0
  <EndBlock>
  <BeginBlock>
    <BlockName> = "FB14H_2"
    <Mu_x> = 1.05
    <Mu_y> = 1.05
    <H_c> = 316415.18448031577
    <H_cAngle> = 0
    <J_re> = 0
    <J_im> = 0
    <Sigma> = 0
    <d_lam> = 0
    <Phi_h> = 0
    <Phi_hx> = 0
    <Phi_hy> = 0
    <LamType> = 0
    <LamFill> = 1
    <NStrands> = 0
    <WireD> = 0
    <BHPoints> = 0
  <EndBlock>
  <BeginBlock>
    <BlockName> = "FB14H_3"
    <Mu_x> = 1.05
    <Mu_y> = 1.05
    <H_c> = 316415.18448031577
    <H_cAngle> = 0
    <J_re> = 0
    <J_im> = 0
    <Sigma> = 0
    <d_lam> = 0
    <Phi_h> = 0
    <Phi_hx> = 0
    <Phi_hy> = 0
    <LamType> = 0
    <LamFill> = 1
    <NStrands> = 0
    <WireD> = 0
    <BHPoints> = 0
  <EndBlock>
  <BeginBlock>
    <BlockName> = "FB14H_4"
    <Mu_x> = 1.05
    <Mu_y> = 1.05
    <H_c> = 316415.18448031577
    <H_cAngle> = 0
    <J_re> = 0
    <J_im> = 0
    <Sigma> = 0
    <d_lam> = 0
    <Phi_h> = 0
    <Phi_hx> = 0
    <Phi_hy> = 0
    <LamType> = 0
    <LamFill> = 1
    <NStrands> = 0
    <WireD> = 0
    <BHPoints> = 0
  <EndBlock>
  <BeginBlock>
    <BlockName> = "FB14H_5"
    <Mu_x> = 1.05
    <Mu_y> = 1.05
    <H_c> = 316415.18448031577
    <H_cAngle> = 0
    <J_re> = 0
    <J_im> = 0
    <Sigma> = 0
    <d_lam> = 0
    <Phi_h> = 0
    <Phi_hx> = 0
    <Phi_hy> = 0
    <LamType> = 0
    <LamFill> = 1
    <NStrands> = 0
    <WireD> = 0
    <BHPoints> = 0
  <EndBlock>
  <BeginBlock>
    <BlockName> = "FB14H_6"
    <Mu_x> = 1.05
    <Mu_y> = 1.05
    <H_c> = 316415.18448031577
    <H_cAngle> = 0
    <J_re> = 0
    <J_im> = 0
    <Sigma> = 0
    <d_lam> = 0
    <Phi_h> = 0
    <Phi_hx> = 0
    <Phi_hy> = 0
    <LamType> = 0
    <LamFill> = 1
    <NStrands> = 0
    <WireD> = 0
    <BHPoints> = 0
  <EndBlock>
[CircuitProps]  = 6
  <BeginCircuit>
    <CircuitName> = "fase1"
    <TotalAmps_re> = 407.29831355264827
    <TotalAmps_im> = 0
    <CircuitType> = 1
  <EndCircuit>
  <BeginCircuit>
    <CircuitName> = "fase2"
    <TotalAmps_re> = -325.10407217745222
    <TotalAmps_im> = -0
    <CircuitType> = 1
  <EndCircuit>
  <BeginCircuit>
    <CircuitName> = "fase3"
    <TotalAmps_re> = -82.194241375195887
    <TotalAmps_im> = -0
    <CircuitType> = 1
  <EndCircuit>
  <BeginCircuit>
    <CircuitName> = "fase1n"
    <TotalAmps_re> = -407.29831355264827
    <TotalAmps_im> = -0
    <CircuitType> = 1
  <EndCircuit>
  <BeginCircuit>
    <CircuitName> = "fase2n"
    <TotalAmps_re> = 325.10407217745222
    <TotalAmps_im> = 0
    <CircuitType> = 1
  <EndCircuit>
  <BeginCircuit>
    <CircuitName> = "fase3n"
    <TotalAmps_re> = 82.194241375195887
    <TotalAmps_im> = 0
    <CircuitType> = 1
  <EndCircuit>
[NumPoints] = 209
409.88582467522241	44.225543195169884	0	2
410.61212382367773	35.923905940874782	0	2
414.89606493770225	45.108983733276943	0	2
416.209735162073	46.865786628595792	0	2
414.55543603002388	48.102808446873922	0	2
406.64958884962351	46.708794283611397	0	2
407.61607685816409	35.661785796001091	0	2
402.7648449156722	49.79741492657876	0	2
404.02900859195512	35.347957987414219	0	2
410.22977920644661	51.113684251258093	0	2
414.875076419896	57.494491610809597	0	2
414.05338973054711	58.092688464825585	0	2
396.08358385637018	54.924126851114714	0	2
397.84362130831397	34.806806720578209	0	2
384.97773183167226	36.712494948743092	0	2
386.94991112308475	35.057640032703368	0	2
392.69760451740103	35.560498046128885	0	2
394.35245943344074	37.532677337541415	0	2
392.59489377163681	57.621744777497319	0	2
407.81245178375383	60.305010835529821	0	2
413.27994635618171	68.019346805387315	0	2
410.11021308420516	70.265878396484922	0	2
382.46860747863246	65.391917538120111	0	2
408.52283541002714	35.741116889844292	0	2
407.79653626157182	44.042754144139394	0	2
398.75037986017702	34.88613781442141	0	2
397.4862161838941	49.335594753585951	0	2
385.88449038353531	36.791826042586294	0	2
392.59500142153246	57.620514333559605	0	2
384.12703237162702	56.879663038604484	0	2
411.33842297213306	27.62226868657968	0	2
416.42595426659648	27.622268686579673	0	2
418.02473250975015	26.120272015272654	0	2
416.61037248318507	24.614777308390785	0	2
408.58256486670467	24.614777308390785	0	2
405.29317226823804	20.898501048249678	0	2
412.8732652030688	20.89850104824967	0	2
418.55600548394955	15.42127988592275	0	2
417.85067785531783	14.6894865900417	0	2
399.60365876025776	14.689486590041703	0	2
387.15896780638087	32.668111208386883	0	2
385.50411289034116	30.695931916974352	0	2
392.90666120069716	33.170969221812399	0	2
394.87884049210965	31.516114305772675	0	2
396.63640615391358	11.42704686581677	0	2
412.08871952733233	11.42704686581677	0	2
418.81273095488763	4.7793294622660945	0	2
416.08125917052962	2.0165093275973334	0	2
388.01323724338096	2.0165093275973298	0	2
409.24913455848247	27.439479635549191	0	2
400.01454353645994	20.436680875256869	0	2
386.41087144220421	30.775263010817554	0	2
396.63629850401793	11.428277309754485	0	2
388.1683294541125	10.687426014799364	0	2
419.83999999999997	0	0	20
370	0	0	2
413.46168702464541	72.904450911684023	0	20
364.37886861451699	64.249825736764222	0	2
0	0	0	2
512	0	0	1
420.83999999999997	0	0	20
504.22156954225051	88.90786696546833	0	1
414.44649477765762	73.078099089350957	0	20
425.3587375005539	5.246734832890402	0	1
425.36961808216648	4.1246294710575278	0	1
425.60913963876487	6.2188556017153669	0	1
497.60805382245132	7.6152730015997463	0	1
500.31245017580676	4.9958071324640168	0	1
500.3142576529666	4.8513359774253502	0	1
500.31525200376467	4.7068569378438925	0	1
497.662159088576	2.0354417587702756	0	1
425.64970443533878	2.035441758770276	0	1
425.38049866377906	3.0025241092246535	0	1
462.86175679359673	2.0354417587702764	0	1
462.8141950315075	6.9404468549048444	0	1
420.80784033031659	5.20260670575066	0	1
420.82960149354176	2.9583959820849115	0	1
425.17701631205233	13.494020692610533	0	1
425.20965396514828	12.372337308713501	0	1
425.40852065091099	14.470814304941758	0	1
497.36681851796203	17.263123969235707	0	1
500.12150129661745	14.696592484022945	0	1
500.12610992201695	14.552183543220041	0	1
500.12990572683827	14.407750951753819	0	1
497.52911396955824	11.685391072738291	0	1
425.53019978587179	10.28897367285391	0	1
425.24229161824417	11.250653924816465	0	1
462.73525517861447	11.01056492604339	0	1
462.59258777838039	15.913725450361309	0	1
420.62783054812269	13.36165290597522	0	1
420.69310585431452	11.11828613818115	0	1
424.83540343618137	21.736232003013178	0	1
424.88978588707408	20.61539241629918	0	1
425.04792291637364	22.717331126720996	0	1
496.93854389384012	26.904482981956871	0	1
499.74247717426078	24.391851048195218	0	1
499.74988521478446	24.247558627924821	0	1
499.7564810461821	24.103226799764624	0	1
497.20896849822606	21.330945989021323	0	1
425.25067063117501	18.538636324727371	0	1
424.94416833796686	19.494552829585182	0	1
462.43473775864447	19.981547470146925	0	1
462.19701837164013	24.881019544499569	0	1
420.28963984127711	21.515674334993399	0	1
420.39840474306266	19.273995161565399	0	1
424.33402733957274	29.970269205506231	0	1
424.41013413724664	28.85069491790485	0	1
424.52748204121366	30.955304889334222	0	1
496.32339100665689	36.535724318941227	0	1
499.17552034420839	34.077936834741863	0	1
499.18572501399518	33.933815197482105	0	1
499.19511839154671	33.789638409925772	0	1
496.70184306819829	30.968479208889637	0	1
424.8112220907318	26.781327353653761	0	1
424.48624093492049	27.731120630303465	0	1
461.96031754599829	28.945015771432338	0	1
461.62763556876308	33.838956904746262	0	1
419.79339538947391	29.66160459882078	0	1
419.9456089848216	27.422456023618011	0	1
423.67307656927159	38.19303581544527	0	1
423.77087909307255	37.075147853058837	0	1
423.84739374195954	39.181637627757766	0	1
495.52159119025515	46.153226064210862	0	1
498.42084401573726	43.751207302930439	0	1
498.43384147722816	43.607310646934948	0	1
498.44602886846837	43.463343118975878	0	1
496.00792838860917	40.594366450245467	0	1
424.21201942316594	35.013947020638462	0	1
423.86868161687346	35.957259890672418	0	1
461.31217295071536	37.897599036050501	0	1
460.88465349133531	42.784168817213001	0	1
419.13928380995634	37.79638034622927	0	1
419.33488885755816	35.560604421456411	0	1
422.85279968183181	46.401439586594826	0	1
422.97226115223037	45.285658341367736	0	1
423.00791377200721	47.393235754681058	0	1
494.53344596875468	55.75337146868636	0	1
497.47873199175046	53.408024731345634	0	1
497.49451735713177	53.264407170261798	0	1
497.50949417888131	53.120703042199409	0	1
495.1274854123908	50.204987810567289	0	1
423.45328796409524	43.233399374114192	0	1
423.09172262262899	44.169877096140645	0	1
460.49054771347102	46.835930563569434	0	1
459.96835154453044	51.713291353531858	0	1
418.32755108733835	45.916942420748214	0	1
418.56647402813553	43.685379930294033	0	1
421.87350514984377	54.592393673995659	0	1
422.01458064226665	53.47913874562213	0	1
422.00935782544099	55.587011223878299	0	1
493.35932694316108	65.332550310298274	0	1
496.34953856205061	63.044757585887503	0	1
496.36810589509201	62.901473128406515	0	1
496.38586651518074	62.758086441486306	0	1
494.060845238139	59.796729128207076	0	1
422.53531304139148	51.436593414201774	0	1
422.15565613468954	52.365883817248594	0	1
459.49575081391481	55.756649013052581	0	1
458.87907431203661	60.622966635891274	0	1
417.35850248109938	54.020237011088042	0	1
417.64065346594515	51.793727154340978	0	1
420.7355612459308	62.762817794800981	0	1
420.89819770765484	61.65250783293078	0	1
420.85210141831453	63.759882691496401	0	1
491.99967565162183	74.887160251643976	0	1
495.03368837010612	72.657781885442944	0	1
495.05503068839295	72.514884414989368	0	1
495.07556842777797	72.3718690910802	0	1
492.80840898560086	69.365983341528747	0	1
421.45843986788077	59.620444255108772	0	1
421.06083416937884	60.54219787106058	0	1
458.3281563544765	64.656399667121747	0	1
457.61723142647281	69.509844099796553	0	1
416.23250241078915	62.103216799553778	0	1
416.55777533423719	59.882596875813377	0	1
419.43939590425668	70.909639386644812	0	1
419.62353217435998	69.802691933446255	0	1
419.53657974743413	71.908776674822334	0	1
490.45500340338225	84.413608194679441	0	1
493.53167625335971	82.243482564716786	0	1
493.55578553091891	82.101025819185168	0	1
493.57909266619635	81.958435640501477	0	1
491.37064764483011	78.909151845376471	0	1
420.22307341152276	67.781874285228909	0	1
419.80766844446316	68.695744480247697	0	1
456.98820341968116	73.531835693529075	0	1
456.18329741534274	78.370581754080206	0	1
414.949974318984	70.162842108016648	0	1
415.31824685919048	67.948947201619518	0	1
511.90372886963274	9.9283618671740772	0	1
420.76086964354732	8.1606480628545679	0	1
511.61495168216578	19.852990083490155	0	1
420.52350833188012	16.318227239718745	0	1
511.13377703488931	29.770152402163621	0	1
420.1280053268805	24.469669798684645	0	1
510.46038587790952	39.676119384028638	0	1
419.57450936105357	32.611910315575415	0	1
509.5950314461009	49.567165800027695	0	1
418.86322858159588	40.741886826725889	0	1
508.53803916387483	59.43957203211788	0	1
417.99443047211929	48.856541980461891	0	1
507.2898065228008	69.289625472067115	0	1
416.96844175206149	56.952824186845163	0	1
505.85080293212621	79.113621917614324	0	1
415.78564825382028	65.027688765251582	0	1
420.50666666666666	0	0	20
414.11822552665353	73.020216363461984	0	20
420.17333333333329	0	0	20
413.78995627564944	72.962333637572996	0	20
[NumSegments] = 179
0	1	27.777777777777779	0	0	2
2	0	27.777777777777779	0	0	2
5	4	27.777777777777779	0	0	2
6	5	27.777777777777779	0	0	2
7	8	27.777777777777779	0	0	2
9	7	27.777777777777779	0	0	2
12	11	27.777777777777779	0	0	2
13	12	27.777777777777779	0	0	2
16	15	27.777777777777779	0	0	2
18	28	27.777777777777779	0	0	2
19	18	27.777777777777779	0	0	2
22	21	27.777777777777779	0	0	2
14	22	27.777777777777779	0	0	2
1	23	27.777777777777779	0	0	2
24	0	27.777777777777779	0	0	2
23	24	27.777777777777779	0	0	2
8	25	27.777777777777779	0	0	2
26	7	27.777777777777779	0	0	2
25	26	27.777777777777779	0	0	2
17	27	27.777777777777779	0	0	2
28	17	27.777777777777779	0	0	2
29	28	27.777777777777779	0	0	2
27	29	27.777777777777779	0	0	2
30	1	27.777777777777779	0	0	2
31	30	27.777777777777779	0	0	2
34	33	27.777777777777779	0	0	2
6	34	27.777777777777779	0	0	2
35	8	27.777777777777779	0	0	2
36	35	27.777777777777779	0	0	2
39	38	27.777777777777779	0	0	2
13	39	27.777777777777779	0	0	2
42	40	27.777777777777779	0	0	2
44	52	27.777777777777779	0	0	2
45	44	27.777777777777779	0	0	2
48	47	27.777777777777779	0	0	2
41	48	27.777777777777779	0	0	2
49	30	27.777777777777779	0	0	2
23	49	27.777777777777779	0	0	2
50	35	27.777777777777779	0	0	2
25	50	27.777777777777779	0	0	2
43	51	27.777777777777779	0	0	2
52	43	27.777777777777779	0	0	2
53	52	27.777777777777779	0	0	2
51	53	27.777777777777779	0	0	2
54	55	-1	4	0	2
57	56	-1	4	0	2
55	58	-1	2	0	2
58	57	-1	2	0	2
59	60	-1	10	0	1
62	61	-1	10	0	1
63	64	27.777777777777779	0	0	1
65	63	27.777777777777779	0	0	1
66	74	27.777777777777779	0	0	1
68	67	27.777777777777779	0	0	1
69	68	27.777777777777779	0	0	1
71	73	27.777777777777779	0	0	1
72	71	27.777777777777779	0	0	1
64	72	27.777777777777779	0	0	1
73	70	27.777777777777779	0	0	1
74	65	27.777777777777779	0	0	1
73	74	27.777777777777779	0	0	1
63	75	27.777777777777779	0	0	1
76	72	27.777777777777779	0	0	1
77	78	27.777777777777779	0	0	1
79	77	27.777777777777779	0	0	1
80	88	27.777777777777779	0	0	1
82	81	27.777777777777779	0	0	1
83	82	27.777777777777779	0	0	1
85	87	27.777777777777779	0	0	1
86	85	27.777777777777779	0	0	1
78	86	27.777777777777779	0	0	1
87	84	27.777777777777779	0	0	1
88	79	27.777777777777779	0	0	1
87	88	27.777777777777779	0	0	1
77	89	27.777777777777779	0	0	1
90	86	27.777777777777779	0	0	1
91	92	27.777777777777779	0	0	1
93	91	27.777777777777779	0	0	1
94	102	27.777777777777779	0	0	1
96	95	27.777777777777779	0	0	1
97	96	27.777777777777779	0	0	1
99	101	27.777777777777779	0	0	1
100	99	27.777777777777779	0	0	1
92	100	27.777777777777779	0	0	1
101	98	27.777777777777779	0	0	1
102	93	27.777777777777779	0	0	1
101	102	27.777777777777779	0	0	1
91	103	27.777777777777779	0	0	1
104	100	27.777777777777779	0	0	1
105	106	27.777777777777779	0	0	1
107	105	27.777777777777779	0	0	1
108	116	27.777777777777779	0	0	1
110	109	27.777777777777779	0	0	1
111	110	27.777777777777779	0	0	1
113	115	27.777777777777779	0	0	1
114	113	27.777777777777779	0	0	1
106	114	27.777777777777779	0	0	1
115	112	27.777777777777779	0	0	1
116	107	27.777777777777779	0	0	1
115	116	27.777777777777779	0	0	1
105	117	27.777777777777779	0	0	1
118	114	27.777777777777779	0	0	1
119	120	27.777777777777779	0	0	1
121	119	27.777777777777779	0	0	1
122	130	27.777777777777779	0	0	1
124	123	27.777777777777779	0	0	1
125	124	27.777777777777779	0	0	1
127	129	27.777777777777779	0	0	1
128	127	27.777777777777779	0	0	1
120	128	27.777777777777779	0	0	1
129	126	27.777777777777779	0	0	1
130	121	27.777777777777779	0	0	1
129	130	27.777777777777779	0	0	1
119	131	27.777777777777779	0	0	1
132	128	27.777777777777779	0	0	1
133	134	27.777777777777779	0	0	1
135	133	27.777777777777779	0	0	1
136	144	27.777777777777779	0	0	1
138	137	27.777777777777779	0	0	1
139	138	27.777777777777779	0	0	1
141	143	27.777777777777779	0	0	1
142	141	27.777777777777779	0	0	1
134	142	27.777777777777779	0	0	1
143	140	27.777777777777779	0	0	1
144	135	27.777777777777779	0	0	1
143	144	27.777777777777779	0	0	1
133	145	27.777777777777779	0	0	1
146	142	27.777777777777779	0	0	1
147	148	27.777777777777779	0	0	1
149	147	27.777777777777779	0	0	1
150	158	27.777777777777779	0	0	1
152	151	27.777777777777779	0	0	1
153	152	27.777777777777779	0	0	1
155	157	27.777777777777779	0	0	1
156	155	27.777777777777779	0	0	1
148	156	27.777777777777779	0	0	1
157	154	27.777777777777779	0	0	1
158	149	27.777777777777779	0	0	1
157	158	27.777777777777779	0	0	1
147	159	27.777777777777779	0	0	1
160	156	27.777777777777779	0	0	1
161	162	27.777777777777779	0	0	1
163	161	27.777777777777779	0	0	1
164	172	27.777777777777779	0	0	1
166	165	27.777777777777779	0	0	1
167	166	27.777777777777779	0	0	1
169	171	27.777777777777779	0	0	1
170	169	27.777777777777779	0	0	1
162	170	27.777777777777779	0	0	1
171	168	27.777777777777779	0	0	1
172	163	27.777777777777779	0	0	1
171	172	27.777777777777779	0	0	1
161	173	27.777777777777779	0	0	1
174	170	27.777777777777779	0	0	1
175	176	27.777777777777779	0	0	1