[Format]      =  4.0
[Frequency]   =  0
[Precision]   =  1e-008
[MinAngle]    =  15
[DoSmartMesh] =  1
[Depth]       =  300
[LengthUnits] =  millimeters
[ProblemType] =  planar
[Coordinates] =  cartesian
[ACSolver]    =  0
[PrevType]    =  0
[PrevSoln]    =  ""
[Comment]     =  "Add comments here."
[PointProps]   = 0
[BdryProps]   = 11
  <BeginBdry>
    <BdryName> = "A=0"
    <BdryType> = 0
    <A_0> = 0
    <A_1> = 0
    <A_2> = 0
    <Phi> = 0
    <c0> = 0
    <c0i> = 0
    <c1> = 0
    <c1i> = 0
    <Mu_ssd> = 0
    <Sigma_ssd> = 0
    <innerangle> = 0
    <outerangle> = 0
  <EndBdry>
  <BeginBdry>
    <BdryName> = "APr1"
    <BdryType> = 5
    <A_0> = 0
    <A_1> = 0
    <A_2> = 0
    <Phi> = 0
    <c0> = 0
    <c0i> = 0
    <c1> = 0
    <c1i> = 0
    <Mu_ssd> = 0
    <Sigma_ssd> = 0
    <innerangle> = 0
    <outerangle> = 0
  <EndBdry>
  <BeginBdry>
    <BdryName> = "APr2"
    <BdryType> = 5
    <A_0> = 0
    <A_1> = 0
    <A_2> = 0
    <Phi> = 0
    <c0> = 0
    <c0i> = 0
    <c1> = 0
    <c1i> = 0
    <Mu_ssd> = 0
    <Sigma_ssd> = 0
    <innerangle> = 0
    <outerangle> = 0
  <EndBdry>
  <BeginBdry>
    <BdryName> = "APr3"
    <BdryType> = 5
    <A_0> = 0
    <A_1> = 0
    <A_2> = 0
    <Phi> = 0
    <c0> = 0
    <c0i> = 0
    <c1> = 0
    <c1i> = 0
    <Mu_ssd> = 0
    <Sigma_ssd> = 0
    <innerangle> = 0
    <outerangle> = 0
  <EndBdry>
  <BeginBdry>
    <BdryName> = "APg1"
    <BdryType> = 5
    <A_0> = 0
    <A_1> = 0
    <A_2> = 0
    <Phi> = 0
    <c0> = 0
    <c0i> = 0
    <c1> = 0
    <c1i> = 0
    <Mu_ssd> = 0
    <Sigma_ssd> = 0
    <innerangle> = 0
    <outerangle> = 0
  <EndBdry>
  <BeginBdry>
    <BdryName> = "APg2"
    <BdryType> = 5
    <A_0> = 0
    <A_1> = 0
    <A_2> = 0
    <Phi> = 0
    <c0> = 0
    <c0i> = 0
    <c1> = 0
    <c1i> = 0
    <Mu_ssd> = 0
    <Sigma_ssd> = 0
    <innerangle> = 0
    <outerangle> = 0
  <EndBdry>
  <BeginBdry>
    <BdryName> = "APg3"
    <BdryType> = 5
    <A_0> = 0
    <A_1> = 0
    <A_2> = 0
    <Phi> = 0
    <c0> = 0
    <c0i> = 0
    <c1> = 0
    <c1i> = 0
    <Mu_ssd> = 0
    <Sigma_ssd> = 0
    <innerangle> = 0
    <outerangle> = 0
  <EndBdry>
  <BeginBdry>
    <BdryName> = "APs1"
    <BdryType> = 5
    <A_0> = 0
    <A_1> = 0
    <A_2> = 0
    <Phi> = 0
    <c0> = 0
    <c0i> = 0
    <c1> = 0
    <c1i> = 0
    <Mu_ssd> = 0
    <Sigma_ssd> = 0
    <innerangle> = 0
    <outerangle> = 0
  <EndBdry>
  <BeginBdry>
    <BdryName> = "APs2"
    <BdryType> = 5
    <A_0> = 0
    <A_1> = 0
    <A_2> = 0
    <Phi> = 0
    <c0> = 0
    <c0i> = 0
    <c1> = 0
    <c1i> = 0
    <Mu_ssd> = 0
    <Sigma_ssd> = 0
    <innerangle> = 0
    <outerangle> = 0
  <EndBdry>
  <BeginBdry>
    <BdryName> = "APs3"
    <BdryType> = 5
    <A_0> = 0
    <A_1> = 0
    <A_2> = 0
    <Phi> = 0
    <c0> = 0
    <c0i> = 0
    <c1> = 0
    <c1i> = 0
    <Mu_ssd> = 0
    <Sigma_ssd> = 0
    <innerangle> = 0
    <outerangle> = 0
  <EndBdry>
  <BeginBdry>
    <BdryName> = "AGap"
    <BdryType> = 7
    <A_0> = 0
    <A_1> = 0
    <A_2> = 0
    <Phi> = 0
    <c0> = 0
    <c0i> = 0
    <c1> = 0
    <c1i> = 0
    <Mu_ssd> = 0
    <Sigma_ssd> = 0
    <innerangle> = 1.1200000000000001
    <outerangle> = 0
  <EndBdry>
[BlockProps]  = 9
  <BeginBlock>
    <BlockName> = "M270-35A"
    <Mu_x> = 1
    <Mu_y> = 1
    <H_c> = 0
    <H_cAngle> = 0
    <J_re> = 0
    <J_im> = 0
    <Sigma> = 0
    <d_lam> = 0
    <Phi_h> = 0
    <Phi_hx> = 0
    <Phi_hy> = 0
    <LamType> = 0
    <LamFill> = 1
    <NStrands> = 0
    <WireD> = 0
    <BHPoints> = 200
      0	0
      0.0045422769999999999	3.2767874890000002
      0.0090353559999999996	6.114592773
      0.013222249	8.4602422570000009
      0.017196487	10.462328400000001
      0.020991169	12.199266809999999
      0.024640190999999999	13.72982376
      0.028168996000000002	15.09561901
      0.031597466999999997	16.327217480000002
      0.034941272000000002	17.447599879999999
      0.038212956999999999	18.47443998
      0.041422729999999998	19.421601849999998
      0.044579012000000001	20.300151339999999
      0.047688851999999997	21.119056130000001
      0.050758219	21.885681389999998
      0.053792226999999998	22.60614816
      0.056795300999999999	23.285597330000002
      0.059771310000000001	23.928387470000001
      0.062723663999999998	24.538245379999999
      0.065655396000000005	25.11838217
      0.068569221	25.67158405
      0.071467592999999996	26.200284
      0.074352739000000001	26.70661905
      0.077226698999999996	27.19247648
      0.080091349000000006	27.65953137
      0.082948429000000004	28.109277410000001
      0.085799557999999998	28.54305239
      0.088646256000000007	28.96205934
      0.091489953999999998	29.36738437
      0.094332005999999996	29.760011540000001
      0.097173704999999999	30.140835630000002
      0.100016285	30.510672870000001
      0.102860934	30.870270300000001
      0.105708802	31.220313650000001
      0.108561001	31.561434299999998
      0.11141862	31.894215259999999
      0.114282722	32.21919639
      0.117154355	32.536878999999999
      0.120034552	32.847729870000002
      0.12292433699999999	33.152184810000001
      0.12582473199999999	33.45065185
      0.12873675200000001	33.743513989999997
      0.13166142	34.031131799999997
      0.13459976100000001	34.313845620000002
      0.137552811	34.591977620000002
      0.14052161499999999	34.865833639999998
      0.14350723800000001	35.135704879999999
      0.14651076099999999	35.401869419999997
      0.14953328699999999	35.664593680000003
      0.15257594699999999	35.924133650000002
      0.155639899	36.180736189999998
      0.158726334	36.434640119999997
      0.161836481	36.686077320000003
      0.16497160599999999	36.93527375
      0.16813302299999999	37.182450420000002
      0.17132209400000001	37.427824389999998
      0.17454023399999999	37.671609650000001
      0.17778891699999999	37.914018050000003
      0.18106968000000001	38.155260249999998
      0.18438413100000001	38.395546590000002
      0.18773395400000001	38.635088090000004
      0.191120915	38.87409736
      0.19454686800000001	39.112789630000002
      0.19801376800000001	39.351383830000003
      0.20152367299999999	39.590103640000002
      0.20507876	39.829178749999997
      0.208681327	40.068846100000002
      0.21233381500000001	40.309351300000003
      0.216038808	40.550950149999998
      0.21979905799999999	40.793910310000001
      0.22361749	41.038513199999997
      0.227497227	41.285056060000002
      0.2314416	41.53385428
      0.23545417299999999	41.785244059999997
      0.23953876299999999	42.039585369999998
      0.24369946200000001	42.297265359999997
      0.247940667	42.558702250000003
      0.25226710400000002	42.824349750000003
      0.25668386300000001	43.0947022
      0.26119642799999998	43.370300520000001
      0.26581071499999998	43.651739030000002
      0.27054201700000002	43.94020278
      0.275438138	44.23873004
      0.28051031599999998	44.548036490000001
      0.28576849199999999	44.868763260000001
      0.29122336399999998	45.201605100000002
      0.296886504	45.547319020000003
      0.30277045699999999	45.906731970000003
      0.30888884599999999	46.280749559999997
      0.31525650100000002	46.670366299999998
      0.321889598	47.076677459999999
      0.328805825	47.50089294
      0.33602457000000002	47.944353649999996
      0.34356714500000002	48.408550759999997
      0.351457032	48.895148689999999
      0.35972019	49.406012390000001
      0.36838539799999998	49.943240269999997
      0.37748466600000002	50.509203810000002
      0.38705371900000002	51.106595769999998
      0.39713256899999999	51.738489119999997
      0.40776619800000002	52.408409570000003
      0.41900536300000002	53.120425429999997
      0.43090757000000002	53.879259759999997
      0.44353822799999998	54.690431349999997
      0.45697202599999998	55.560433060000001
      0.47129457299999999	56.49695913
      0.486604327	57.509196449999997
      0.503014823	58.60819978
      0.520657166	59.807376320000003
      0.53968265500000001	61.123111049999999
      0.56026517099999995	62.575567960000001
      0.58260257699999995	64.189698669999999
      0.60691558199999995	65.996464399999994
      0.63344113800000001	68.034201780000004
      0.662415215	70.349880479999996
      0.69403682899999997	72.999622560000006
      0.72840307800000004	76.047204840000006
      0.76540934699999996	79.558509650000005
      0.80463064699999998	83.589963030000007
      0.84524547999999999	88.171938179999998
      0.88609953900000005	93.294734669999997
      0.92594964300000004	98.90894376
      0.963771241	104.9435902
      0.99893980100000002	111.3300564
      1.0312218310000001	118.0174305
      1.0606584889999999	124.9760964
      1.0874410889999999	132.19454709999999
      1.1118223309999999	139.6744898
      1.1340651580000001	147.42664859999999
      1.1544176930000001	155.46782519999999
      1.173103241	163.8190534
      1.1903180360000001	172.50453999999999
      1.2062325739999999	181.55112829999999
      1.220994358	190.98810510000001
      1.234730984	200.84723579999999
      1.2475531	211.16296399999999
      1.2595570490000001	221.97273730000001
      1.270827143	233.31744900000001
      1.281437594	245.2419931
      1.291454146	257.79594609999998
      1.3009354369999999	271.03439809999998
      1.309934159	285.01896390000002
      1.318498043	299.81902289999999
      1.326670706	315.51324579999999
      1.3344924010000001	332.19149570000002
      1.3420006879999999	349.95721329999998
      1.3492310569999999	368.93044570000001
      1.356217531	389.25173360000002
      1.362993272	411.08716509999999
      1.3695912379999999	434.63503709999998
      1.3760449050000001	460.1347695
      1.382389146	487.87903890000001
      1.3886613240000001	518.23060969999995
      1.394902732	551.64618570000005
      1.401160583	588.71104339999999
      1.4074908660000001	630.19074279999995
      1.4139626249999999	677.11087850000001
      1.420664664	730.8848299
      1.4277165590000001	793.52783980000004
      1.435287779	868.03580320000003
      1.4436331710000001	959.10175079999999
      1.453164339	1074.5891859999999
      1.464608755	1228.9034079999999
      1.479413587	1451.8548430000001
      1.5007295060000001	1812.597843
      1.531321148	2396.2922779999999
      1.5749716949999999	3340.7297119999998
      1.6351726849999999	4868.8615820000005
      1.6746062129999999	6056.7860730000002
      1.7053540309999999	7126.7301200000002
      1.7307497590000001	8135.9466300000004
      1.752580204	9119.3875740000003
      1.771845345	10098.25848
      1.789165838	11087.22133
      1.804957089	12097.58993
      1.819514077	13138.977849999999
      1.8330565510000001	14220.25051
      1.845754994	15350.15127
      1.8577465099999999	16537.778849999999
      1.869145125	17793.012470000001
      1.8800488470000001	19126.948680000001
      1.8905448170000001	20552.403480000001
      1.9007133519999999	22084.53774
      1.9106314310000001	23741.68173
      1.920376064	25546.46932
      1.930027954	27527.455720000002
      1.9396760099999999	29721.505959999999
      1.9494234969999999	32177.45292
      1.959397184	34961.935420000002
      1.969762051	38169.180130000001
      1.980746793	41938.394229999998
      1.9926918389999999	46487.096960000003
      2.0061495709999999	52181.595710000001
      2.022124024	59707.652569999998
      2.042772002	70576.241299999994
      2.0725625070000002	88161.987269999998
      2.1158769670000002	116616.322
      2.1803765140000002	162656.4026
      2.2792825830000001	237150.818
      2.3747656959999999	310949.48619999998
  <EndBlock>
  <BeginBlock>
    <BlockName> = "ShaftAir"
    <Mu_x> = 1
    <Mu_y> = 1
    <H_c> = 0
    <H_cAngle> = 0
    <J_re> = 0
    <J_im> = 0
    <Sigma> = 0
    <d_lam> = 0
    <Phi_h> = 0
    <Phi_hx> = 0
    <Phi_hy> = 0
    <LamType> = 0
    <LamFill> = 1
    <NStrands> = 0
    <WireD> = 0
    <BHPoints> = 3
      -100	-7.9577471545947675e-011
      0	0
      100	7.9577471545947675e-011
  <EndBlock>
  <BeginBlock>
    <BlockName> = "Copper"
    <Mu_x> = 1
    <Mu_y> = 1
    <H_c> = 0
    <H_cAngle> = 0
    <J_re> = 0
    <J_im> = 0
    <Sigma> = 58
    <d_lam> = 0
    <Phi_h> = 0
    <Phi_hx> = 0
    <Phi_hy> = 0
    <LamType> = 0
    <LamFill> = 1
    <NStrands> = 0
    <WireD> = 0
    <BHPoints> = 0
  <EndBlock>
  <BeginBlock>
    <BlockName> = "Aluminium"
    <Mu_x> = 1
    <Mu_y> = 1
    <H_c> = 0
    <H_cAngle> = 0
    <J_re> = 0
    <J_im> = 0
    <Sigma> = 29
    <d_lam> = 0
    <Phi_h> = 0
    <Phi_hx> = 0
    <Phi_hy> = 0
    <LamType> = 0
    <LamFill> = 1
    <NStrands> = 0
    <WireD> = 0
    <BHPoints> = 0
  <EndBlock>
  <BeginBlock>
    <BlockName> = "BMH-38EH"
    <Mu_x> = 1.05
    <Mu_y> = 1.05
    <H_c> = 954929.65855137201
    <H_cAngle> = 0
    <J_re> = 0
    <J_im> = 0
    <Sigma> = 0.66666666666666663
    <d_lam> = 0
    <Phi_h> = 0
    <Phi_hx> = 0
    <Phi_hy> = 0
    <LamType> = 0
    <LamFill> = 1
    <NStrands> = 0
    <WireD> = 0
    <BHPoints> = 0
  <EndBlock>
  <BeginBlock>
    <BlockName> = "DW235"
    <Mu_x> = 1
    <Mu_y> = 1
    <H_c> = 0
    <H_cAngle> = 0
    <J_re> = 0
    <J_im> = 0
    <Sigma> = 0
    <d_lam> = 0
    <Phi_h> = 0
    <Phi_hx> = 0
    <Phi_hy> = 0
    <LamType> = 0
    <LamFill> = 1
    <NStrands> = 0
    <WireD> = 0
    <BHPoints> = 0
  <EndBlock>
  <BeginBlock>
    <BlockName> = "Air"
    <Mu_x> = 1
    <Mu_y> = 1
    <H_c> = 0
    <H_cAngle> = 0
    <J_re> = 0
    <J_im> = 0
    <Sigma> = 0
    <d_lam> = 0
    <Phi_h> = 0
    <Phi_hx> = 0
    <Phi_hy> = 0
    <LamType> = 0
    <LamFill> = 1
    <NStrands> = 0
    <WireD> = 0
    <BHPoints> = 0
  <EndBlock>
  <BeginBlock>
    <BlockName> = "BMH-38EH_1"
    <Mu_x> = 1.05
    <Mu_y> = 1.05
    <H_c> = 954929.65855137201
    <H_cAngle> = 0
    <J_re> = 0
    <J_im> = 0
    <Sigma> = 0.66666666666666663
    <d_lam> = 0
    <Phi_h> = 0
    <Phi_hx> = 0
    <Phi_hy> = 0
    <LamType> = 0
    <LamFill> = 1
    <NStrands> = 0
    <WireD> = 0
    <BHPoints> = 0
  <EndBlock>
  <BeginBlock>
    <BlockName> = "BMH-38EH_2"
    <Mu_x> = 1.05
    <Mu_y> = 1.05
    <H_c> = 954929.65855137201
    <H_cAngle> = 0
    <J_re> = 0
    <J_im> = 0
    <Sigma> = 0.66666666666666663
    <d_lam> = 0
    <Phi_h> = 0
    <Phi_hx> = 0
    <Phi_hy> = 0
    <LamType> = 0
    <LamFill> = 1
    <NStrands> = 0
    <WireD> = 0
    <BHPoints> = 0
  <EndBlock>
[CircuitProps]  = 6
  <BeginCircuit>
    <CircuitName> = "fase1"
    <TotalAmps_re> = -5257.2518303478237
    <TotalAmps_im> = -0
    <CircuitType> = 1
  <EndCircuit>
  <BeginCircuit>
    <CircuitName> = "fase2"
    <TotalAmps_re> = 7866.1539264846861
    <TotalAmps_im> = 0
    <CircuitType> = 1
  <EndCircuit>
  <BeginCircuit>
    <CircuitName> = "fase3"
    <TotalAmps_re> = -2608.9020961368651
    <TotalAmps_im> = -0
    <CircuitType> = 1
  <EndCircuit>
  <BeginCircuit>
    <CircuitName> = "fase1n"
    <TotalAmps_re> = 5257.2518303478237
    <TotalAmps_im> = 0
    <CircuitType> = 1
  <EndCircuit>
  <BeginCircuit>
    <CircuitName> = "fase2n"
    <TotalAmps_re> = -7866.1539264846861
    <TotalAmps_im> = -0
    <CircuitType> = 1
  <EndCircuit>
  <BeginCircuit>
    <CircuitName> = "fase3n"
    <TotalAmps_re> = 2608.9020961368651
    <TotalAmps_im> = 0
    <CircuitType> = 1
  <EndCircuit>
[NumPoints] = 67
972.41993257982028	30.559527507111014	0	2
963.47366920008585	30.278379854045593	0	2
970.98020408786556	61.088896450068987	0	20
962.04718621025711	60.526878602728345	0	2
964.91301101292913	57.664409878792668	0	2
962.23258918596787	57.504224513776499	0	2
972.90000000000009	3.5527136788005009e-015	0	20
963.94932000000006	0	0	2
966.62975385374705	3.0367669240175417	0	2
963.94456310468684	3.0283311207341086	0	2
909.41999999999996	0	0	2
907.62546736723868	57.102954270348164	0	2
0	0	0	2
1081	0	0	1
977.22399999999993	0	0	20
1078.8668934309615	67.87655161118775	0	1
975.29567166158915	61.360402656513727	0	20
986.74525859235018	13.147903438170671	0	1
986.77472827888062	10.333858537923881	0	1
986.8454624499185	13.53817169647099	0	1
1064.315387979957	14.349464515823232	0	1
1067.3180482218568	11.413452464131211	0	1
1067.3208749102585	11.177366646927961	0	1
1067.3229930501088	10.941273409550394	0	1
1064.3824785383886	7.9430223022664315	0	1
986.91255300834985	7.1317294829141895	0	1
986.80419796541105	7.5198136376770908	0	1
1027.0789435083109	7.5523663167430941	0	1
1027.0118529498793	13.958808530299894	0	1
977.13689656493568	13.047281228129233	0	1
977.19583593799655	7.4191914276356528	0	1
986.25350013663501	33.809853409028179	0	1
986.34189626984778	30.997042841879693	0	1
986.34550885610906	34.202134586309342	0	1
1063.781453516405	36.635657184522017	0	1
1066.8449424224634	33.763172020343916	0	1
1066.8527126992383	33.52719717835712	0	1
1066.8597747382544	33.291200079102104	0	1
1063.9826957635632	30.232025048254982	0	1
986.54675110326707	27.798502450042299	0	1
986.43029240306055	28.184232274731208	0	1
1026.695523296843	29.06022844631152	0	1
1026.494281049685	35.463860582578562	0	1
976.64935265436509	33.508030915130789	0	1
976.82614492079063	27.882409780833811	0	1
985.32913829977701	54.456973260754388	0	1
985.47642210620654	51.646630818383215	0	1
985.41291152309134	54.851095289527017	0	1
1062.780909349035	58.905780243159882	0	1
1065.9038831717687	56.09808193342522	0	1
1065.9165936286158	55.862321573019621	0	1
1065.9285964691539	55.626524128014665	0	1
1063.1162150134192	52.507767028879599	0	1
985.74821718747523	48.453082075246719	0	1
985.62370591263607	48.836288376012035	0	1
1025.8617604962531	50.55534379923386	0	1
1025.5264548318692	56.95335701351415	0	1
975.73341805915732	53.954082872322182	0	1
976.02798567201648	48.333397987579829	0	1
1080.762918836308	22.638755893908872	0	1
977.00967862802236	20.465435328093619	0	1
1080.0517793368658	45.267581681264787	0	1
976.36680852052666	40.921893839863365	0	1
975.78266666666661	0	0	20
973.85718247034788	61.269900587698814	0	20
974.3413333333333	0	0	20
972.41869327910661	61.179398518883893	0	20
[NumSegments] = 56
0	1	0.9608888888888889	0	0	2
3	2	-1	4	0	2
5	4	0.9608888888888889	0	0	2
7	6	-1	4	0	2
9	8	0.9608888888888889	0	0	2
7	10	-1	3	0	2
11	3	-1	3	0	2
10	12	-1	2	0	2
12	11	-1	2	0	2
13	14	-1	10	0	1
16	15	-1	10	0	1
17	18	0.9608888888888889	0	0	1
19	17	0.9608888888888889	0	0	1
20	28	0.9608888888888889	0	0	1
22	21	0.9608888888888889	0	0	1
23	22	0.9608888888888889	0	0	1
25	27	0.9608888888888889	0	0	1
26	25	0.9608888888888889	0	0	1
18	26	0.9608888888888889	0	0	1
27	24	0.9608888888888889	0	0	1
28	19	0.9608888888888889	0	0	1
27	28	0.9608888888888889	0	0	1
17	29	0.9608888888888889	0	0	1
30	26	0.9608888888888889	0	0	1
31	32	0.9608888888888889	0	0	1
33	31	0.9608888888888889	0	0	1
34	42	0.9608888888888889	0	0	1
36	35	0.9608888888888889	0	0	1
37	36	0.9608888888888889	0	0	1
39	41	0.9608888888888889	0	0	1
40	39	0.9608888888888889	0	0	1
32	40	0.9608888888888889	0	0	1
41	38	0.9608888888888889	0	0	1
42	33	0.9608888888888889	0	0	1
41	42	0.9608888888888889	0	0	1
31	43	0.9608888888888889	0	0	1
44	40	0.9608888888888889	0	0	1
45	46	0.9608888888888889	0	0	1
47	45	0.9608888888888889	0	0	1
48	56	0.9608888888888889	0	0	1
50	49	0.9608888888888889	0	0	1
51	50	0.9608888888888889	0	0	1
53	55	0.9608888888888889	0	0	1
54	53	0.9608888888888889	0	0	1
46	54	0.9608888888888889	0	0	1
55	52	0.9608888888888889	0	0	1
56	47	0.9608888888888889	0	0	1
55	56	0.9608888888888889	0	0	1
45	57	0.9608888888888889	0	0	1
58	54	0.9608888888888889	0	0	1
59	60	0.9608888888888889	0	0	1
61	62	0.9608888888888889	0	0	1
63	14	0.09608888888888889	7	0	20
64	16	0.09608888888888889	7	0	20
65	6	0.09608888888888889	5	0	20
66	2	0.09608888888888889	5	0	20
[NumArcSegments] = 29
0	2	1.7999999999999998	0.014147106052612921	0	0	2	0.014147106052612921
1	5	1.6199999999999999	0.014278467957824909	0	0	2	0.014278467957824909
0	4	27.361022819753178	0.2314807954829349	0	0	2	0.2314807954829349
5	3	0.17999999999999941	0.014278467957824909	0	0	2	0.014278467957824909
6	0	1.7999999999999996	0.014147106052612917	0	0	2	0.014147106052612917
7	9	0.1799999999999996	0.014278467957824907	0	0	2	0.014278467957824907
8	0	27.361022819753192	0.23148079548293529	0	0	2	0.23148079548293529
9	1	1.6200000000000001	0.014278467957824906	0	0	2	0.014278467957824906
10	11	3.5999999999999996	0.015134612696649636	0	0	2	0.015134612696649636
13	59	1.2	0.9608888888888889	1	0	1	0.063
14	30	0.43499999999999978	0.014084508238220828	0	0	1	0.014084508238220828
21	20	89.914022423054902	4.6315142596740069	0	0	1	4.6315142596740069
24	23	89.914022423056707	4.6315142596741188	0	0	1	4.6315142596741188
29	60	0.43500000000000016	0.014084508238220828	0	0	1	0.014084508238220828
30	29	0.33000000000000002	0.014084508238220828	0	0	1	0.014084508238220828
35	34	89.914022423058711	4.631514259674371	0	0	1	4.631514259674371
38	37	89.914022423056849	4.631514259674117	0	0	1	4.631514259674117
43	62	0.43499999999999933	0.014084508238220828	0	0	1	0.014084508238220828
44	43	0.33000000000000024	0.014084508238220828	0	0	1	0.014084508238220828
49	48	89.914022423055499	4.6315142596739731	0	0	1	4.6315142596739731
52	51	89.914022423056267	4.6315142596741214	0	0	1	4.6315142596741214
57	16	0.43500000000000039	0.014084508238220828	0	0	1	0.014084508238220828
58	57	0.33000000000000035	0.014084508238220828	0	0	1	0.014084508238220828
59	61	1.2000000000000002	0.9608888888888889	1	0	1	0.085999999999999993
60	44	0.43499999999999978	0.014084508238220828	0	0	1	0.014084508238220828
61	15	1.2000000000000002	0.9608888888888889	1	0	1	0.063
62	58	0.43499999999999966	0.014084508238220828	0	0	1	0.014084508238220828
63	64	3.6000000000000001	0.09608888888888889	11	0	20	0.0074000000000000003
65	66	3.6000000000000001	0.09608888888888889	11	0	20	0.0074000000000000003
[NumHoles] = 0
[NumBlockLabels] = 20
966.64435119833013	44.064123630542809	8	0.9608888888888889	0	-178.20000000000007	201	1	0
967.50370859550424	16.718927863769672	9	0.9608888888888889	0	-178.20000000000002	202	1	0
965.04324762425483	59.196102361341623	7	0.9608888888888889	0	0	2	1	0
966.85590923960842	1.516274511187909	7	0.9608888888888889	0	0	2	1	0
936.22246266394473	29.42197618743851	1	0.9608888888888889	0	0	22	1	0
454.4856280639018	14.282786260415715	7	0.9608888888888889	0	0	2	1	0
1006.9100632539879	10.544722980722689	3	0.9608888888888889	1	0	1	1	0
1047.1807332042024	10.9664518663203	3	0.9608888888888889	1	0	1	1	0
981.97257323346196	10.28356864956903	7	0.9608888888888889	0	0	10	1	0
1074.1308014971885	11.248682638294831	1	0.9608888888888889	0	0	12	1	0
1006.4683992215561	31.629543678162371	3	0.9608888888888889	3	0	1	-1	0
1046.7214051249723	32.894545350727711	3	0.9608888888888889	3	0	1	-1	0
981.54184760834471	30.846195235622268	7	0.9608888888888889	0	0	10	1	0
1073.6596522272969	33.741113870906901	1	0.9608888888888889	0	0	12	1	0
1005.5852648851338	52.700490612378616	3	0.9608888888888889	2	0	1	1	0
1045.8029504429883	54.808210200369402	3	0.9608888888888889	2	0	1	1	0
980.68058528860524	51.395291660968873	7	0.9608888888888889	0	0	10	1	0
1072.7175603491553	56.218745135820946	1	0.9608888888888889	0	0	12	1	0
976.02148788567149	30.672710942322539	7	0.09608888888888889	0	0	20	1	0
973.14024364099055	30.582164194153322	7	0.09608888888888889	0	0	20	1	0
