[Format]      =  4.0
[Frequency]   =  0
[Precision]   =  1e-008
[MinAngle]    =  15
[DoSmartMesh] =  1
[Depth]       =  1500
[LengthUnits] =  millimeters
[ProblemType] =  planar
[Coordinates] =  cartesian
[ACSolver]    =  0
[PrevType]    =  0
[PrevSoln]    =  ""
[Comment]     =  "Add comments here."
[PointProps]   = 0
[BdryProps]   = 11
  <BeginBdry>
    <BdryName> = "A=0"
    <BdryType> = 0
    <A_0> = 0
    <A_1> = 0
    <A_2> = 0
    <Phi> = 0
    <c0> = 0
    <c0i> = 0
    <c1> = 0
    <c1i> = 0
    <Mu_ssd> = 0
    <Sigma_ssd> = 0
    <innerangle> = 0
    <outerangle> = 0
  <EndBdry>
  <BeginBdry>
    <BdryName> = "APr1"
    <BdryType> = 5
    <A_0> = 0
    <A_1> = 0
    <A_2> = 0
    <Phi> = 0
    <c0> = 0
    <c0i> = 0
    <c1> = 0
    <c1i> = 0
    <Mu_ssd> = 0
    <Sigma_ssd> = 0
    <innerangle> = 0
    <outerangle> = 0
  <EndBdry>
  <BeginBdry>
    <BdryName> = "APr2"
    <BdryType> = 5
    <A_0> = 0
    <A_1> = 0
    <A_2> = 0
    <Phi> = 0
    <c0> = 0
    <c0i> = 0
    <c1> = 0
    <c1i> = 0
    <Mu_ssd> = 0
    <Sigma_ssd> = 0
    <innerangle> = 0
    <outerangle> = 0
  <EndBdry>
  <BeginBdry>
    <BdryName> = "APr3"
    <BdryType> = 5
    <A_0> = 0
    <A_1> = 0
    <A_2> = 0
    <Phi> = 0
    <c0> = 0
    <c0i> = 0
    <c1> = 0
    <c1i> = 0
    <Mu_ssd> = 0
    <Sigma_ssd> = 0
    <innerangle> = 0
    <outerangle> = 0
  <EndBdry>
  <BeginBdry>
    <BdryName> = "APg1"
    <BdryType> = 5
    <A_0> = 0
    <A_1> = 0
    <A_2> = 0
    <Phi> = 0
    <c0> = 0
    <c0i> = 0
    <c1> = 0
    <c1i> = 0
    <Mu_ssd> = 0
    <Sigma_ssd> = 0
    <innerangle> = 0
    <outerangle> = 0
  <EndBdry>
  <BeginBdry>
    <BdryName> = "APg2"
    <BdryType> = 5
    <A_0> = 0
    <A_1> = 0
    <A_2> = 0
    <Phi> = 0
    <c0> = 0
    <c0i> = 0
    <c1> = 0
    <c1i> = 0
    <Mu_ssd> = 0
    <Sigma_ssd> = 0
    <innerangle> = 0
    <outerangle> = 0
  <EndBdry>
  <BeginBdry>
    <BdryName> = "APg3"
    <BdryType> = 5
    <A_0> = 0
    <A_1> = 0
    <A_2> = 0
    <Phi> = 0
    <c0> = 0
    <c0i> = 0
    <c1> = 0
    <c1i> = 0
    <Mu_ssd> = 0
    <Sigma_ssd> = 0
    <innerangle> = 0
    <outerangle> = 0
  <EndBdry>
  <BeginBdry>
    <BdryName> = "APs1"
    <BdryType> = 5
    <A_0> = 0
    <A_1> = 0
    <A_2> = 0
    <Phi> = 0
    <c0> = 0
    <c0i> = 0
    <c1> = 0
    <c1i> = 0
    <Mu_ssd> = 0
    <Sigma_ssd> = 0
    <innerangle> = 0
    <outerangle> = 0
  <EndBdry>
  <BeginBdry>
    <BdryName> = "APs2"
    <BdryType> = 5
    <A_0> = 0
    <A_1> = 0
    <A_2> = 0
    <Phi> = 0
    <c0> = 0
    <c0i> = 0
    <c1> = 0
    <c1i> = 0
    <Mu_ssd> = 0
    <Sigma_ssd> = 0
    <innerangle> = 0
    <outerangle> = 0
  <EndBdry>
  <BeginBdry>
    <BdryName> = "APs3"
    <BdryType> = 5
    <A_0> = 0
    <A_1> = 0
    <A_2> = 0
    <Phi> = 0
    <c0> = 0
    <c0i> = 0
    <c1> = 0
    <c1i> = 0
    <Mu_ssd> = 0
    <Sigma_ssd> = 0
    <innerangle> = 0
    <outerangle> = 0
  <EndBdry>
  <BeginBdry>
    <BdryName> = "AGap"
    <BdryType> = 7
    <A_0> = 0
    <A_1> = 0
    <A_2> = 0
    <Phi> = 0
    <c0> = 0
    <c0i> = 0
    <c1> = 0
    <c1i> = 0
    <Mu_ssd> = 0
    <Sigma_ssd> = 0
    <innerangle> = 0
    <outerangle> = 0
  <EndBdry>
[BlockProps]  = 9
  <BeginBlock>
    <BlockName> = "M270-35A"
    <Mu_x> = 1
    <Mu_y> = 1
    <H_c> = 0
    <H_cAngle> = 0
    <J_re> = 0
    <J_im> = 0
    <Sigma> = 0
    <d_lam> = 0
    <Phi_h> = 0
    <Phi_hx> = 0
    <Phi_hy> = 0
    <LamType> = 0
    <LamFill> = 1
    <NStrands> = 0
    <WireD> = 0
    <BHPoints> = 200
      0	0
      0.0045422769999999999	3.2767874890000002
      0.0090353559999999996	6.114592773
      0.013222249	8.4602422570000009
      0.017196487	10.462328400000001
      0.020991169	12.199266809999999
      0.024640190999999999	13.72982376
      0.028168996000000002	15.09561901
      0.031597466999999997	16.327217480000002
      0.034941272000000002	17.447599879999999
      0.038212956999999999	18.47443998
      0.041422729999999998	19.421601849999998
      0.044579012000000001	20.300151339999999
      0.047688851999999997	21.119056130000001
      0.050758219	21.885681389999998
      0.053792226999999998	22.60614816
      0.056795300999999999	23.285597330000002
      0.059771310000000001	23.928387470000001
      0.062723663999999998	24.538245379999999
      0.065655396000000005	25.11838217
      0.068569221	25.67158405
      0.071467592999999996	26.200284
      0.074352739000000001	26.70661905
      0.077226698999999996	27.19247648
      0.080091349000000006	27.65953137
      0.082948429000000004	28.109277410000001
      0.085799557999999998	28.54305239
      0.088646256000000007	28.96205934
      0.091489953999999998	29.36738437
      0.094332005999999996	29.760011540000001
      0.097173704999999999	30.140835630000002
      0.100016285	30.510672870000001
      0.102860934	30.870270300000001
      0.105708802	31.220313650000001
      0.108561001	31.561434299999998
      0.11141862	31.894215259999999
      0.114282722	32.21919639
      0.117154355	32.536878999999999
      0.120034552	32.847729870000002
      0.12292433699999999	33.152184810000001
      0.12582473199999999	33.45065185
      0.12873675200000001	33.743513989999997
      0.13166142	34.031131799999997
      0.13459976100000001	34.313845620000002
      0.137552811	34.591977620000002
      0.14052161499999999	34.865833639999998
      0.14350723800000001	35.135704879999999
      0.14651076099999999	35.401869419999997
      0.14953328699999999	35.664593680000003
      0.15257594699999999	35.924133650000002
      0.155639899	36.180736189999998
      0.158726334	36.434640119999997
      0.161836481	36.686077320000003
      0.16497160599999999	36.93527375
      0.16813302299999999	37.182450420000002
      0.17132209400000001	37.427824389999998
      0.17454023399999999	37.671609650000001
      0.17778891699999999	37.914018050000003
      0.18106968000000001	38.155260249999998
      0.18438413100000001	38.395546590000002
      0.18773395400000001	38.635088090000004
      0.191120915	38.87409736
      0.19454686800000001	39.112789630000002
      0.19801376800000001	39.351383830000003
      0.20152367299999999	39.590103640000002
      0.20507876	39.829178749999997
      0.208681327	40.068846100000002
      0.21233381500000001	40.309351300000003
      0.216038808	40.550950149999998
      0.21979905799999999	40.793910310000001
      0.22361749	41.038513199999997
      0.227497227	41.285056060000002
      0.2314416	41.53385428
      0.23545417299999999	41.785244059999997
      0.23953876299999999	42.039585369999998
      0.24369946200000001	42.297265359999997
      0.247940667	42.558702250000003
      0.25226710400000002	42.824349750000003
      0.25668386300000001	43.0947022
      0.26119642799999998	43.370300520000001
      0.26581071499999998	43.651739030000002
      0.27054201700000002	43.94020278
      0.275438138	44.23873004
      0.28051031599999998	44.548036490000001
      0.28576849199999999	44.868763260000001
      0.29122336399999998	45.201605100000002
      0.296886504	45.547319020000003
      0.30277045699999999	45.906731970000003
      0.30888884599999999	46.280749559999997
      0.31525650100000002	46.670366299999998
      0.321889598	47.076677459999999
      0.328805825	47.50089294
      0.33602457000000002	47.944353649999996
      0.34356714500000002	48.408550759999997
      0.351457032	48.895148689999999
      0.35972019	49.406012390000001
      0.36838539799999998	49.943240269999997
      0.37748466600000002	50.509203810000002
      0.38705371900000002	51.106595769999998
      0.39713256899999999	51.738489119999997
      0.40776619800000002	52.408409570000003
      0.41900536300000002	53.120425429999997
      0.43090757000000002	53.879259759999997
      0.44353822799999998	54.690431349999997
      0.45697202599999998	55.560433060000001
      0.47129457299999999	56.49695913
      0.486604327	57.509196449999997
      0.503014823	58.60819978
      0.520657166	59.807376320000003
      0.53968265500000001	61.123111049999999
      0.56026517099999995	62.575567960000001
      0.58260257699999995	64.189698669999999
      0.60691558199999995	65.996464399999994
      0.63344113800000001	68.034201780000004
      0.662415215	70.349880479999996
      0.69403682899999997	72.999622560000006
      0.72840307800000004	76.047204840000006
      0.76540934699999996	79.558509650000005
      0.80463064699999998	83.589963030000007
      0.84524547999999999	88.171938179999998
      0.88609953900000005	93.294734669999997
      0.92594964300000004	98.90894376
      0.963771241	104.9435902
      0.99893980100000002	111.3300564
      1.0312218310000001	118.0174305
      1.0606584889999999	124.9760964
      1.0874410889999999	132.19454709999999
      1.1118223309999999	139.6744898
      1.1340651580000001	147.42664859999999
      1.1544176930000001	155.46782519999999
      1.173103241	163.8190534
      1.1903180360000001	172.50453999999999
      1.2062325739999999	181.55112829999999
      1.220994358	190.98810510000001
      1.234730984	200.84723579999999
      1.2475531	211.16296399999999
      1.2595570490000001	221.97273730000001
      1.270827143	233.31744900000001
      1.281437594	245.2419931
      1.291454146	257.79594609999998
      1.3009354369999999	271.03439809999998
      1.309934159	285.01896390000002
      1.318498043	299.81902289999999
      1.326670706	315.51324579999999
      1.3344924010000001	332.19149570000002
      1.3420006879999999	349.95721329999998
      1.3492310569999999	368.93044570000001
      1.356217531	389.25173360000002
      1.362993272	411.08716509999999
      1.3695912379999999	434.63503709999998
      1.3760449050000001	460.1347695
      1.382389146	487.87903890000001
      1.3886613240000001	518.23060969999995
      1.394902732	551.64618570000005
      1.401160583	588.71104339999999
      1.4074908660000001	630.19074279999995
      1.4139626249999999	677.11087850000001
      1.420664664	730.8848299
      1.4277165590000001	793.52783980000004
      1.435287779	868.03580320000003
      1.4436331710000001	959.10175079999999
      1.453164339	1074.5891859999999
      1.464608755	1228.9034079999999
      1.479413587	1451.8548430000001
      1.5007295060000001	1812.597843
      1.531321148	2396.2922779999999
      1.5749716949999999	3340.7297119999998
      1.6351726849999999	4868.8615820000005
      1.6746062129999999	6056.7860730000002
      1.7053540309999999	7126.7301200000002
      1.7307497590000001	8135.9466300000004
      1.752580204	9119.3875740000003
      1.771845345	10098.25848
      1.789165838	11087.22133
      1.804957089	12097.58993
      1.819514077	13138.977849999999
      1.8330565510000001	14220.25051
      1.845754994	15350.15127
      1.8577465099999999	16537.778849999999
      1.869145125	17793.012470000001
      1.8800488470000001	19126.948680000001
      1.8905448170000001	20552.403480000001
      1.9007133519999999	22084.53774
      1.9106314310000001	23741.68173
      1.920376064	25546.46932
      1.930027954	27527.455720000002
      1.9396760099999999	29721.505959999999
      1.9494234969999999	32177.45292
      1.959397184	34961.935420000002
      1.969762051	38169.180130000001
      1.980746793	41938.394229999998
      1.9926918389999999	46487.096960000003
      2.0061495709999999	52181.595710000001
      2.022124024	59707.652569999998
      2.042772002	70576.241299999994
      2.0725625070000002	88161.987269999998
      2.1158769670000002	116616.322
      2.1803765140000002	162656.4026
      2.2792825830000001	237150.818
      2.3747656959999999	310949.48619999998
  <EndBlock>
  <BeginBlock>
    <BlockName> = "ShaftAir"
    <Mu_x> = 1
    <Mu_y> = 1
    <H_c> = 0
    <H_cAngle> = 0
    <J_re> = 0
    <J_im> = 0
    <Sigma> = 0
    <d_lam> = 0
    <Phi_h> = 0
    <Phi_hx> = 0
    <Phi_hy> = 0
    <LamType> = 0
    <LamFill> = 1
    <NStrands> = 0
    <WireD> = 0
    <BHPoints> = 3
      -100	-7.9577471545947675e-011
      0	0
      100	7.9577471545947675e-011
  <EndBlock>
  <BeginBlock>
    <BlockName> = "Copper"
    <Mu_x> = 1
    <Mu_y> = 1
    <H_c> = 0
    <H_cAngle> = 0
    <J_re> = 0
    <J_im> = 0
    <Sigma> = 58
    <d_lam> = 0
    <Phi_h> = 0
    <Phi_hx> = 0
    <Phi_hy> = 0
    <LamType> = 0
    <LamFill> = 1
    <NStrands> = 0
    <WireD> = 0
    <BHPoints> = 0
  <EndBlock>
  <BeginBlock>
    <BlockName> = "Aluminium"
    <Mu_x> = 1
    <Mu_y> = 1
    <H_c> = 0
    <H_cAngle> = 0
    <J_re> = 0
    <J_im> = 0
    <Sigma> = 29
    <d_lam> = 0
    <Phi_h> = 0
    <Phi_hx> = 0
    <Phi_hy> = 0
    <LamType> = 0
    <LamFill> = 1
    <NStrands> = 0
    <WireD> = 0
    <BHPoints> = 0
  <EndBlock>
  <BeginBlock>
    <BlockName> = "BMN-52UH"
    <Mu_x> = 1.05
    <Mu_y> = 1.05
    <H_c> = 1098926.9880154678
    <H_cAngle> = 0
    <J_re> = 0
    <J_im> = 0
    <Sigma> = 0.66600000000000004
    <d_lam> = 0
    <Phi_h> = 0
    <Phi_hx> = 0
    <Phi_hy> = 0
    <LamType> = 0
    <LamFill> = 1
    <NStrands> = 0
    <WireD> = 0
    <BHPoints> = 0
  <EndBlock>
  <BeginBlock>
    <BlockName> = "DW235"
    <Mu_x> = 1
    <Mu_y> = 1
    <H_c> = 0
    <H_cAngle> = 0
    <J_re> = 0
    <J_im> = 0
    <Sigma> = 0
    <d_lam> = 0
    <Phi_h> = 0
    <Phi_hx> = 0
    <Phi_hy> = 0
    <LamType> = 0
    <LamFill> = 1
    <NStrands> = 0
    <WireD> = 0
    <BHPoints> = 0
  <EndBlock>
  <BeginBlock>
    <BlockName> = "Air"
    <Mu_x> = 1
    <Mu_y> = 1
    <H_c> = 0
    <H_cAngle> = 0
    <J_re> = 0
    <J_im> = 0
    <Sigma> = 0
    <d_lam> = 0
    <Phi_h> = 0
    <Phi_hx> = 0
    <Phi_hy> = 0
    <LamType> = 0
    <LamFill> = 1
    <NStrands> = 0
    <WireD> = 0
    <BHPoints> = 0
  <EndBlock>
  <BeginBlock>
    <BlockName> = "BMN-52UH_1"
    <Mu_x> = 1.05
    <Mu_y> = 1.05
    <H_c> = 1098926.9880154678
    <H_cAngle> = 0
    <J_re> = 0
    <J_im> = 0
    <Sigma> = 0.66600000000000004
    <d_lam> = 0
    <Phi_h> = 0
    <Phi_hx> = 0
    <Phi_hy> = 0
    <LamType> = 0
    <LamFill> = 1
    <NStrands> = 0
    <WireD> = 0
    <BHPoints> = 0
  <EndBlock>
  <BeginBlock>
    <BlockName> = "BMN-52UH_2"
    <Mu_x> = 1.05
    <Mu_y> = 1.05
    <H_c> = 1098926.9880154678
    <H_cAngle> = 0
    <J_re> = 0
    <J_im> = 0
    <Sigma> = 0.66600000000000004
    <d_lam> = 0
    <Phi_h> = 0
    <Phi_hx> = 0
    <Phi_hy> = 0
    <LamType> = 0
    <LamFill> = 1
    <NStrands> = 0
    <WireD> = 0
    <BHPoints> = 0
  <EndBlock>
[CircuitProps]  = 6
  <BeginCircuit>
    <CircuitName> = "fase1"
    <TotalAmps_re> = 0
    <TotalAmps_im> = 0
    <CircuitType> = 1
  <EndCircuit>
  <BeginCircuit>
    <CircuitName> = "fase2"
    <TotalAmps_re> = 0
    <TotalAmps_im> = 0
    <CircuitType> = 1
  <EndCircuit>
  <BeginCircuit>
    <CircuitName> = "fase3"
    <TotalAmps_re> = 0
    <TotalAmps_im> = 0
    <CircuitType> = 1
  <EndCircuit>
  <BeginCircuit>
    <CircuitName> = "fase1n"
    <TotalAmps_re> = 0
    <TotalAmps_im> = 0
    <CircuitType> = 1
  <EndCircuit>
  <BeginCircuit>
    <CircuitName> = "fase2n"
    <TotalAmps_re> = 0
    <TotalAmps_im> = 0
    <CircuitType> = 1
  <EndCircuit>
  <BeginCircuit>
    <CircuitName> = "fase3n"
    <TotalAmps_re> = 0
    <TotalAmps_im> = 0
    <CircuitType> = 1
  <EndCircuit>
[NumPoints] = 225
430.48545129713199	318.75348397523146	0	2
471.73043757656143	299.5189313597802	0	2
515.43052103285447	324.74918630688012	0	2
520.81740443351509	336.30037423368714	0	2
488.70397108285408	518.49682844135771	0	2
445.00997448071979	589.84990695610531	0	2
388.77264634756898	555.41223901644946	0	2
520.04593105738979	340.6773498161736	0	2
429.63311367970573	324.74144152679315	0	2
488.89846496970694	517.39336198348303	0	2
398.48564759202281	501.45745369410258	0	2
495.25622226021795	258.77107699976131	0	2
491.29134031591246	213.43459479530918	0	2
538.95630571651111	284.00133194686123	0	2
551.65336960534432	282.89091585565455	0	2
693.3834107533047	163.98163966740836	0	2
733.32999108423451	90.464989359715275	0	2
675.3874317348243	58.980868525273337	0	2
555.05820496345916	280.03431252234344	0	2
496.05089486363465	209.70246999023612	0	2
692.5250277119876	164.70180954324101	0	2
633.5177176121631	94.369967011133696	0	2
750	0	0	20
386.11000000000001	0	0	2
375.00000000000006	649.519052838329	0	20
193.05500000000006	334.38106865520962	0	2
0	0	0	2
1250	0	0	1
757.77777777777783	0	0	20
625.00000000000011	1082.5317547305483	0	1
378.88888888888897	656.25480597887463	0	20
767.70596980719176	42.619891170074396	0	1
768.10257744662499	33.536082781778056	0	1
769.54189809464629	50.901228508410284	0	1
1100.5544369649906	79.86107314449967	0	1
1123.2798304210112	60.221951232619567	0	1
1123.9292492795901	49.071810786002999	0	1
1124.2541004281986	37.907499407131475	0	1
1103.3268462124038	16.362461737446843	0	1
771.04989321876383	16.362461737446836	0	1
768.49918508605822	24.452274393481716	0	1
946.86669823072964	16.362461737446843	0	1
944.68966708299706	66.224672736748374	0	1
756.60543401183781	42.135231310459552	0	1
757.39864929070427	23.967614533866872	0	1
761.07004854455386	109.36769362723234	0	1
762.25685303923933	100.35301850572441	0	1
762.17722446392622	117.77752967031631	0	1
1089.406143919336	175.47681703838214	0	1
1113.7567226494141	157.89307646048201	0	1
1115.3754690455369	146.84196624755805	0	1
1116.6721178879413	135.7484510872203	0	1
1097.702271953176	112.46146840564685	0	1
766.68973308283182	83.501623769557469	0	1
763.44365753392481	91.338343384216472	0	1
941.83750207118237	98.825067997895545	0	1
935.32297714954598	148.30779746386622	0	1
750.05399452928941	107.91740260256512	0	1
752.42760351866025	89.888052359549221	0	1
748.64192466583222	175.28314189786809	0	1
750.60989371695314	166.40620716403291	0	1
749.01192193984468	183.75747271541439	0	1
1069.9668123170404	269.75707639880346	0	1
1095.7572537137589	254.36254003803398	0	1
1098.3330080099252	243.49456568036572	0	1
1100.591586265497	232.55627508737953	0	1
1083.7235205936308	207.70457539318866	0	1
756.49460113822124	150.00528802512281	0	1
752.57786276807406	157.52927243019769	0	1
929.64035382384077	180.53555581867269	0	1
918.83791459653207	229.26221030158754	0	1
737.79419125338859	172.87825729855587	0	1
741.73012935563042	155.12438783088544	0	1
730.51618369805021	239.86457961980628	0	1
733.25033987283541	231.19294410700803	0	1
730.1461864240373	248.33891043735255	0	1
1042.3843872093871	361.98432152405383	0	1
1069.4184104410226	348.89615109759558	0	1
1072.9315695917555	338.29402444230726	0	1
1076.1348881162028	327.59420541280565	0	1
1061.4969788722155	301.36692514653669	0	1
740.54208849501981	215.36732146314765	0	1
735.98449604762072	222.52130859420978	0	1
910.36808115170686	260.87205904932068	0	1
895.35994070393667	308.47179928660631	0	1
719.91932868973663	236.52340406975881	0	1
725.38764103930714	219.18013304416232	0	1
706.83077347459425	302.62050305664468	0	1
710.31030819362502	294.22016314721242	0	1
705.72359755522155	311.03033909972851	0	1
1006.8687875061684	451.45664739039671	0	1
1034.9406473323388	440.7744517780485	0	1
1039.3644740751977	430.518861410726	0	1
1043.488153680333	420.13894602825087	0	1
1031.1918041921824	392.73569062919495	0	1
718.95360340683271	279.09027954249376	0	1
713.78984291265579	285.81982323778027	0	1
884.16735768673186	339.22316839174744	0	1
865.06773702947066	385.33373161868911	0	1
696.56544533557997	298.36846491925479	0	1
703.5245147736415	281.56778510039038	0	1
677.76595426890663	363.07330173796629	0	1
681.96438617197043	355.00818909087479	0	1
675.93002598145154	371.35463907630208	0	1
963.69030836603156	537.49311557312205	0	1
992.58636098320721	529.29819273357987	0	1
997.88718732549944	519.46718988941325	0	1
1002.8998443195818	509.48617557758951	0	1
993.03863723161146	481.11550036587141	0	1
691.89344728066465	340.68919207520315	0	1
686.16281807503435	346.94307644378335	0	1
851.23758675491354	414.99258459416365	0	1
828.19184553402931	459.2630415822851	0	1
667.91027834470412	357.94276159091032	0	1
676.30714215083208	341.81253629672744	0	1
643.54292690496015	420.76289336340835	0	1
648.42830339019247	413.09438835575014	0	1
640.99221877225432	428.85270601944308	0	1
913.1775640871117	619.43893659911907	0	1
942.67789308696229	613.79365484342156	0	1
948.81537653949658	604.46205939017671	0	1
954.67886157607586	594.95590769461865	0	1
947.32784662858489	565.83373063928161	0	1
659.56756424400487	399.69525414246169	0	1
653.31367987542478	405.42588334809193	0	1
811.82938379658242	487.6036566484446	0	1
785.01291401816536	529.6970824888333	0	1
634.17191084037256	414.79289771511031	0	1
643.94266381083719	399.45588769979395	0	1
604.42214928542342	475.25022530677359	0	1
609.95728968790058	468.03668989202686	0	1
601.17607373651629	483.08694492143246	0	1
855.71498715380005	696.67045329014081	0	1
885.59507721985085	693.6177766211631	0	1
892.52250782763963	684.85660763481064	0	1
899.19219624511857	675.89766610989261	0	1
894.40731910052159	646.24562456277908	0	1
622.2219737856642	455.65939398310314	0	1
615.49243009037764	460.82315447728013	0	1
766.24266903157502	556.5037704524932	0	1
735.85956022286564	596.09980875779843	0	1
595.60711217107644	468.48620942889892	0	1
606.67739297603066	454.05913859940551	0	1
560.70135414975255	526.12061607162241	0	1
566.84413270880248	519.41694960994505	0	1
556.78461577960525	533.64460047669706	0	1
791.7399024734118	768.59988717050351	0	1
821.77234807816865	768.16304830095316	0	1
829.43700391138964	760.03898356761772	0	1
836.862135353643	751.69543516790134	0	1
834.67981181619814	721.73919906957701	0	1
580.14089839891449	508.15569070086855	0	1
572.98691126785241	512.71328314826781	0	1
714.82438488526373	621.1685545372344	0	1
681.10587085011946	657.96585554721116	0	1
552.50938374075122	518.61405820922619	0	1
564.79494085885108	505.20672528587158	0	1
512.71328314826792	572.98691126785241	0	1
519.41694960994516	566.84413270880248	0	1
508.15569070086855	580.14089839891437	0	1
721.73919906957713	834.67981181619814	0	1
751.69543516790134	836.862135353643	0	1
760.03898356761783	829.43700391138952	0	1
768.16304830095339	821.77234807816876	0	1
768.59988717050373	791.73990247341169	0	1
533.64460047669729	556.78461577960525	0	1
526.12061607162241	560.70135414975255	0	1
657.96585554721128	681.10587085011923	0	1
621.16855453723463	714.82438488526373	0	1
505.20672528587181	564.79494085885108	0	1
518.61405820922619	552.5093837407511	0	1
460.82315447728024	615.49243009037775	0	1
468.03668989202697	609.95728968790047	0	1
455.65939398310314	622.22197378566398	0	1
646.24562456277931	894.40731910052136	0	1
675.89766610989284	899.19219624511845	0	1
684.85660763481087	892.52250782763963	0	1
693.61777662116333	885.59507721985096	0	1
696.67045329014104	855.71498715380005	0	1
483.08694492143258	601.1760737365164	0	1
475.25022530677359	604.42214928542342	0	1
596.09980875779843	735.85956022286564	0	1
556.50377045249343	766.24266903157502	0	1
454.05913859940557	606.67739297603066	0	1
468.48620942889897	595.60711217107632	0	1
405.42588334809204	653.31367987542478	0	1
413.0943883557502	648.42830339019247	0	1
399.69525414246169	659.56756424400476	0	1
565.83373063928161	947.32784662858478	0	1
594.95590769461865	954.67886157607575	0	1
604.46205939017682	948.81537653949658	0	1
613.79365484342168	942.67789308696229	0	1
619.43893659911919	913.1775640871117	0	1
428.85270601944313	640.99221877225432	0	1
420.76289336340835	643.54292690496004	0	1
529.6970824888333	785.01291401816513	0	1
487.60365664844466	811.82938379658253	0	1
399.455887699794	643.94266381083719	0	1
414.79289771511026	634.17191084037245	0	1
1245.2433726146819	108.94467843457271	0	1
754.89420455396726	66.044685059892075	0	1
1231.00969126526	217.06022208366292	0	1
746.26543061591769	131.5867301876072	0	1
1207.4072828613355	323.52380637815094	0	1
731.95712614349407	196.12732084435461	0	1
1174.6157759823855	427.52517915708592	0	1
712.07818597332175	259.17526416456229	0	1
1132.8847337958125	528.27282717587434	0	1
686.77990084332816	320.2507272301745	0	1
1082.5317547305483	624.99999999999989	0	1
656.25480597887474	378.88888888888886	0	1
1023.9400553612397	716.97054543880756	0	1
620.73521578343605	434.64347732379269	0	1
957.55555389872268	803.48451210817404	0	1
580.49145578571461	487.09016645135534	0	1
883.8834764831845	883.88347648318438	0	1
535.82980529913937	535.82980529913937	0	1
803.48451210817439	957.55555389872234	0	1
487.09016645135551	580.49145578571438	0	1
716.97054543880768	1023.9400553612396	0	1
434.64347732379281	620.73521578343593	0	1
755.18518518518522	0	0	20
377.59259259259267	654.00955493202605	0	20
752.59259259259261	0	0	20
376.29629629629636	651.76430388517747	0	20
[NumSegments] = 193
2	1	18.518518518518519	0	0	2
4	9	18.518518518518519	0	0	2
0	6	18.518518518518519	0	0	2
7	3	18.518518518518519	0	0	2
7	8	18.518518518518519	0	0	2
9	7	18.518518518518519	0	0	2
10	9	18.518518518518519	0	0	2
8	10	18.518518518518519	0	0	2
13	11	18.518518518518519	0	0	2
15	20	18.518518518518519	0	0	2
12	17	18.518518518518519	0	0	2
18	14	18.518518518518519	0	0	2
18	19	18.518518518518519	0	0	2
20	18	18.518518518518519	0	0	2
21	20	18.518518518518519	0	0	2
19	21	18.518518518518519	0	0	2
22	23	-1	4	0	2
25	24	-1	4	0	2
23	26	-1	2	0	2
26	25	-1	2	0	2
27	28	-1	10	0	1
30	29	-1	10	0	1
31	32	18.518518518518519	0	0	1
33	31	18.518518518518519	0	0	1
34	42	18.518518518518519	0	0	1
36	35	18.518518518518519	0	0	1
37	36	18.518518518518519	0	0	1
39	41	18.518518518518519	0	0	1
40	39	18.518518518518519	0	0	1
32	40	18.518518518518519	0	0	1
41	38	18.518518518518519	0	0	1
42	33	18.518518518518519	0	0	1
41	42	18.518518518518519	0	0	1
31	43	18.518518518518519	0	0	1
44	40	18.518518518518519	0	0	1
45	46	18.518518518518519	0	0	1
47	45	18.518518518518519	0	0	1
48	56	18.518518518518519	0	0	1
50	49	18.518518518518519	0	0	1
51	50	18.518518518518519	0	0	1
53	55	18.518518518518519	0	0	1
54	53	18.518518518518519	0	0	1
46	54	18.518518518518519	0	0	1
55	52	18.518518518518519	0	0	1
56	47	18.518518518518519	0	0	1
55	56	18.518518518518519	0	0	1
45	57	18.518518518518519	0	0	1
58	54	18.518518518518519	0	0	1
59	60	18.518518518518519	0	0	1
61	59	18.518518518518519	0	0	1
62	70	18.518518518518519	0	0	1
64	63	18.518518518518519	0	0	1
65	64	18.518518518518519	0	0	1
67	69	18.518518518518519	0	0	1
68	67	18.518518518518519	0	0	1
60	68	18.518518518518519	0	0	1
69	66	18.518518518518519	0	0	1
70	61	18.518518518518519	0	0	1
69	70	18.518518518518519	0	0	1
59	71	18.518518518518519	0	0	1
72	68	18.518518518518519	0	0	1
73	74	18.518518518518519	0	0	1
75	73	18.518518518518519	0	0	1
76	84	18.518518518518519	0	0	1
78	77	18.518518518518519	0	0	1
79	78	18.518518518518519	0	0	1
81	83	18.518518518518519	0	0	1
82	81	18.518518518518519	0	0	1
74	82	18.518518518518519	0	0	1
83	80	18.518518518518519	0	0	1
84	75	18.518518518518519	0	0	1
83	84	18.518518518518519	0	0	1
73	85	18.518518518518519	0	0	1
86	82	18.518518518518519	0	0	1
87	88	18.518518518518519	0	0	1
89	87	18.518518518518519	0	0	1
90	98	18.518518518518519	0	0	1
92	91	18.518518518518519	0	0	1
93	92	18.518518518518519	0	0	1
95	97	18.518518518518519	0	0	1
96	95	18.518518518518519	0	0	1
88	96	18.518518518518519	0	0	1
97	94	18.518518518518519	0	0	1
98	89	18.518518518518519	0	0	1
97	98	18.518518518518519	0	0	1
87	99	18.518518518518519	0	0	1
100	96	18.518518518518519	0	0	1
101	102	18.518518518518519	0	0	1
103	101	18.518518518518519	0	0	1
104	112	18.518518518518519	0	0	1
106	105	18.518518518518519	0	0	1
107	106	18.518518518518519	0	0	1
109	111	18.518518518518519	0	0	1
110	109	18.518518518518519	0	0	1
102	110	18.518518518518519	0	0	1
111	108	18.518518518518519	0	0	1
112	103	18.518518518518519	0	0	1
111	112	18.518518518518519	0	0	1
101	113	18.518518518518519	0	0	1
114	110	18.518518518518519	0	0	1
115	116	18.518518518518519	0	0	1
117	115	18.518518518518519	0	0	1
118	126	18.518518518518519	0	0	1
120	119	18.518518518518519	0	0	1
121	120	18.518518518518519	0	0	1
123	125	18.518518518518519	0	0	1
124	123	18.518518518518519	0	0	1
116	124	18.518518518518519	0	0	1
125	122	18.518518518518519	0	0	1
126	117	18.518518518518519	0	0	1
125	126	18.518518518518519	0	0	1
115	127	18.518518518518519	0	0	1
128	124	18.518518518518519	0	0	1
129	130	18.518518518518519	0	0	1
131	129	18.518518518518519	0	0	1
132	140	18.518518518518519	0	0	1
134	133	18.518518518518519	0	0	1
135	134	18.518518518518519	0	0	1
137	139	18.518518518518519	0	0	1
138	137	18.518518518518519	0	0	1
130	138	18.518518518518519	0	0	1
139	136	18.518518518518519	0	0	1
140	131	18.518518518518519	0	0	1
139	140	18.518518518518519	0	0	1
129	141	18.518518518518519	0	0	1
142	138	18.518518518518519	0	0	1
143	144	18.518518518518519	0	0	1
145	143	18.518518518518519	0	0	1
146	154	18.518518518518519	0	0	1
148	147	18.518518518518519	0	0	1
149	148	18.518518518518519	0	0	1
151	153	18.518518518518519	0	0	1
152	151	18.518518518518519	0	0	1
144	152	18.518518518518519	0	0	1
153	150	18.518518518518519	0	0	1
154	145	18.518518518518519	0	0	1
153	154	18.518518518518519	0	0	1
143	155	18.518518518518519	0	0	1
156	152	18.518518518518519	0	0	1
157	158	18.518518518518519	0	0	1
159	157	18.518518518518519	0	0	1
160	168	18.518518518518519	0	0	1
162	161	18.518518518518519	0	0	1
163	162	18.518518518518519	0	0	1
165	167	18.518518518518519	0	0	1
166	165	18.518518518518519	0	0	1
158	166	18.518518518518519	0	0	1
167	164	18.518518518518519	0	0	1
168	159	18.518518518518519	0	0	1
167	168	18.518518518518519	0	0	1
157	169	18.518518518518519	0	0	1
170	166	18.518518518518519	0	0	1
171	172	18.518518518518519	0	0	1
173	171	18.518518518518519	0	0	1
174	182	18.518518518518519	0	0	1
176	175	18.518518518518519	0	0	1
177	176	18.518518518518519	0	0	1
179	181	18.518518518518519	0	0	1
180	179	18.518518518518519	0	0	1
172	180	18.518518518518519	0	0	1
181	178	18.518518518518519	0	0	1
182	173	18.518518518518519	0	0	1
181	182	18.518518518518519	0	0	1
171	183	18.518518518518519	0	0	1
184	180	18.518518518518519	0	0	1
185	186	18.518518518518519	0	0	1
187	185	18.518518518518519	0	0	1
188	196	18.518518518518519	0	0	1
190	189	18.518518518518519	0	0	1
191	190	18.518518518518519	0	0	1
193	195	18.518518518518519	0	0	1
194	193	18.518518518518519	0	0	1
186	194	18.518518518518519	0	0	1
195	192	18.518518518518519	0	0	1
196	187	18.518518518518519	0	0	1
195	196	18.518518518518519	0	0	1
185	197	18.518518518518519	0	0	1
198	194	18.518518518518519	0	0	1