[Format]      =  4.0
[Frequency]   =  0
[Precision]   =  1e-008
[MinAngle]    =  15
[DoSmartMesh] =  1
[Depth]       =  1500
[LengthUnits] =  millimeters
[ProblemType] =  planar
[Coordinates] =  cartesian
[ACSolver]    =  0
[PrevType]    =  0
[PrevSoln]    =  ""
[Comment]     =  "Add comments here."
[PointProps]   = 0
[BdryProps]   = 11
  <BeginBdry>
    <BdryName> = "A=0"
    <BdryType> = 0
    <A_0> = 0
    <A_1> = 0
    <A_2> = 0
    <Phi> = 0
    <c0> = 0
    <c0i> = 0
    <c1> = 0
    <c1i> = 0
    <Mu_ssd> = 0
    <Sigma_ssd> = 0
    <innerangle> = 0
    <outerangle> = 0
  <EndBdry>
  <BeginBdry>
    <BdryName> = "APr1"
    <BdryType> = 5
    <A_0> = 0
    <A_1> = 0
    <A_2> = 0
    <Phi> = 0
    <c0> = 0
    <c0i> = 0
    <c1> = 0
    <c1i> = 0
    <Mu_ssd> = 0
    <Sigma_ssd> = 0
    <innerangle> = 0
    <outerangle> = 0
  <EndBdry>
  <BeginBdry>
    <BdryName> = "APr2"
    <BdryType> = 5
    <A_0> = 0
    <A_1> = 0
    <A_2> = 0
    <Phi> = 0
    <c0> = 0
    <c0i> = 0
    <c1> = 0
    <c1i> = 0
    <Mu_ssd> = 0
    <Sigma_ssd> = 0
    <innerangle> = 0
    <outerangle> = 0
  <EndBdry>
  <BeginBdry>
    <BdryName> = "APr3"
    <BdryType> = 5
    <A_0> = 0
    <A_1> = 0
    <A_2> = 0
    <Phi> = 0
    <c0> = 0
    <c0i> = 0
    <c1> = 0
    <c1i> = 0
    <Mu_ssd> = 0
    <Sigma_ssd> = 0
    <innerangle> = 0
    <outerangle> = 0
  <EndBdry>
  <BeginBdry>
    <BdryName> = "APg1"
    <BdryType> = 5
    <A_0> = 0
    <A_1> = 0
    <A_2> = 0
    <Phi> = 0
    <c0> = 0
    <c0i> = 0
    <c1> = 0
    <c1i> = 0
    <Mu_ssd> = 0
    <Sigma_ssd> = 0
    <innerangle> = 0
    <outerangle> = 0
  <EndBdry>
  <BeginBdry>
    <BdryName> = "APg2"
    <BdryType> = 5
    <A_0> = 0
    <A_1> = 0
    <A_2> = 0
    <Phi> = 0
    <c0> = 0
    <c0i> = 0
    <c1> = 0
    <c1i> = 0
    <Mu_ssd> = 0
    <Sigma_ssd> = 0
    <innerangle> = 0
    <outerangle> = 0
  <EndBdry>
  <BeginBdry>
    <BdryName> = "APg3"
    <BdryType> = 5
    <A_0> = 0
    <A_1> = 0
    <A_2> = 0
    <Phi> = 0
    <c0> = 0
    <c0i> = 0
    <c1> = 0
    <c1i> = 0
    <Mu_ssd> = 0
    <Sigma_ssd> = 0
    <innerangle> = 0
    <outerangle> = 0
  <EndBdry>
  <BeginBdry>
    <BdryName> = "APs1"
    <BdryType> = 5
    <A_0> = 0
    <A_1> = 0
    <A_2> = 0
    <Phi> = 0
    <c0> = 0
    <c0i> = 0
    <c1> = 0
    <c1i> = 0
    <Mu_ssd> = 0
    <Sigma_ssd> = 0
    <innerangle> = 0
    <outerangle> = 0
  <EndBdry>
  <BeginBdry>
    <BdryName> = "APs2"
    <BdryType> = 5
    <A_0> = 0
    <A_1> = 0
    <A_2> = 0
    <Phi> = 0
    <c0> = 0
    <c0i> = 0
    <c1> = 0
    <c1i> = 0
    <Mu_ssd> = 0
    <Sigma_ssd> = 0
    <innerangle> = 0
    <outerangle> = 0
  <EndBdry>
  <BeginBdry>
    <BdryName> = "APs3"
    <BdryType> = 5
    <A_0> = 0
    <A_1> = 0
    <A_2> = 0
    <Phi> = 0
    <c0> = 0
    <c0i> = 0
    <c1> = 0
    <c1i> = 0
    <Mu_ssd> = 0
    <Sigma_ssd> = 0
    <innerangle> = 0
    <outerangle> = 0
  <EndBdry>
  <BeginBdry>
    <BdryName> = "AGap"
    <BdryType> = 7
    <A_0> = 0
    <A_1> = 0
    <A_2> = 0
    <Phi> = 0
    <c0> = 0
    <c0i> = 0
    <c1> = 0
    <c1i> = 0
    <Mu_ssd> = 0
    <Sigma_ssd> = 0
    <innerangle> = 2.7999999999999998
    <outerangle> = 0
  <EndBdry>
[BlockProps]  = 9
  <BeginBlock>
    <BlockName> = "M270-35A"
    <Mu_x> = 1
    <Mu_y> = 1
    <H_c> = 0
    <H_cAngle> = 0
    <J_re> = 0
    <J_im> = 0
    <Sigma> = 0
    <d_lam> = 0
    <Phi_h> = 0
    <Phi_hx> = 0
    <Phi_hy> = 0
    <LamType> = 0
    <LamFill> = 1
    <NStrands> = 0
    <WireD> = 0
    <BHPoints> = 200
      0	0
      0.0045422769999999999	3.2767874890000002
      0.0090353559999999996	6.114592773
      0.013222249	8.4602422570000009
      0.017196487	10.462328400000001
      0.020991169	12.199266809999999
      0.024640190999999999	13.72982376
      0.028168996000000002	15.09561901
      0.031597466999999997	16.327217480000002
      0.034941272000000002	17.447599879999999
      0.038212956999999999	18.47443998
      0.041422729999999998	19.421601849999998
      0.044579012000000001	20.300151339999999
      0.047688851999999997	21.119056130000001
      0.050758219	21.885681389999998
      0.053792226999999998	22.60614816
      0.056795300999999999	23.285597330000002
      0.059771310000000001	23.928387470000001
      0.062723663999999998	24.538245379999999
      0.065655396000000005	25.11838217
      0.068569221	25.67158405
      0.071467592999999996	26.200284
      0.074352739000000001	26.70661905
      0.077226698999999996	27.19247648
      0.080091349000000006	27.65953137
      0.082948429000000004	28.109277410000001
      0.085799557999999998	28.54305239
      0.088646256000000007	28.96205934
      0.091489953999999998	29.36738437
      0.094332005999999996	29.760011540000001
      0.097173704999999999	30.140835630000002
      0.100016285	30.510672870000001
      0.102860934	30.870270300000001
      0.105708802	31.220313650000001
      0.108561001	31.561434299999998
      0.11141862	31.894215259999999
      0.114282722	32.21919639
      0.117154355	32.536878999999999
      0.120034552	32.847729870000002
      0.12292433699999999	33.152184810000001
      0.12582473199999999	33.45065185
      0.12873675200000001	33.743513989999997
      0.13166142	34.031131799999997
      0.13459976100000001	34.313845620000002
      0.137552811	34.591977620000002
      0.14052161499999999	34.865833639999998
      0.14350723800000001	35.135704879999999
      0.14651076099999999	35.401869419999997
      0.14953328699999999	35.664593680000003
      0.15257594699999999	35.924133650000002
      0.155639899	36.180736189999998
      0.158726334	36.434640119999997
      0.161836481	36.686077320000003
      0.16497160599999999	36.93527375
      0.16813302299999999	37.182450420000002
      0.17132209400000001	37.427824389999998
      0.17454023399999999	37.671609650000001
      0.17778891699999999	37.914018050000003
      0.18106968000000001	38.155260249999998
      0.18438413100000001	38.395546590000002
      0.18773395400000001	38.635088090000004
      0.191120915	38.87409736
      0.19454686800000001	39.112789630000002
      0.19801376800000001	39.351383830000003
      0.20152367299999999	39.590103640000002
      0.20507876	39.829178749999997
      0.208681327	40.068846100000002
      0.21233381500000001	40.309351300000003
      0.216038808	40.550950149999998
      0.21979905799999999	40.793910310000001
      0.22361749	41.038513199999997
      0.227497227	41.285056060000002
      0.2314416	41.53385428
      0.23545417299999999	41.785244059999997
      0.23953876299999999	42.039585369999998
      0.24369946200000001	42.297265359999997
      0.247940667	42.558702250000003
      0.25226710400000002	42.824349750000003
      0.25668386300000001	43.0947022
      0.26119642799999998	43.370300520000001
      0.26581071499999998	43.651739030000002
      0.27054201700000002	43.94020278
      0.275438138	44.23873004
      0.28051031599999998	44.548036490000001
      0.28576849199999999	44.868763260000001
      0.29122336399999998	45.201605100000002
      0.296886504	45.547319020000003
      0.30277045699999999	45.906731970000003
      0.30888884599999999	46.280749559999997
      0.31525650100000002	46.670366299999998
      0.321889598	47.076677459999999
      0.328805825	47.50089294
      0.33602457000000002	47.944353649999996
      0.34356714500000002	48.408550759999997
      0.351457032	48.895148689999999
      0.35972019	49.406012390000001
      0.36838539799999998	49.943240269999997
      0.37748466600000002	50.509203810000002
      0.38705371900000002	51.106595769999998
      0.39713256899999999	51.738489119999997
      0.40776619800000002	52.408409570000003
      0.41900536300000002	53.120425429999997
      0.43090757000000002	53.879259759999997
      0.44353822799999998	54.690431349999997
      0.45697202599999998	55.560433060000001
      0.47129457299999999	56.49695913
      0.486604327	57.509196449999997
      0.503014823	58.60819978
      0.520657166	59.807376320000003
      0.53968265500000001	61.123111049999999
      0.56026517099999995	62.575567960000001
      0.58260257699999995	64.189698669999999
      0.60691558199999995	65.996464399999994
      0.63344113800000001	68.034201780000004
      0.662415215	70.349880479999996
      0.69403682899999997	72.999622560000006
      0.72840307800000004	76.047204840000006
      0.76540934699999996	79.558509650000005
      0.80463064699999998	83.589963030000007
      0.84524547999999999	88.171938179999998
      0.88609953900000005	93.294734669999997
      0.92594964300000004	98.90894376
      0.963771241	104.9435902
      0.99893980100000002	111.3300564
      1.0312218310000001	118.0174305
      1.0606584889999999	124.9760964
      1.0874410889999999	132.19454709999999
      1.1118223309999999	139.6744898
      1.1340651580000001	147.42664859999999
      1.1544176930000001	155.46782519999999
      1.173103241	163.8190534
      1.1903180360000001	172.50453999999999
      1.2062325739999999	181.55112829999999
      1.220994358	190.98810510000001
      1.234730984	200.84723579999999
      1.2475531	211.16296399999999
      1.2595570490000001	221.97273730000001
      1.270827143	233.31744900000001
      1.281437594	245.2419931
      1.291454146	257.79594609999998
      1.3009354369999999	271.03439809999998
      1.309934159	285.01896390000002
      1.318498043	299.81902289999999
      1.326670706	315.51324579999999
      1.3344924010000001	332.19149570000002
      1.3420006879999999	349.95721329999998
      1.3492310569999999	368.93044570000001
      1.356217531	389.25173360000002
      1.362993272	411.08716509999999
      1.3695912379999999	434.63503709999998
      1.3760449050000001	460.1347695
      1.382389146	487.87903890000001
      1.3886613240000001	518.23060969999995
      1.394902732	551.64618570000005
      1.401160583	588.71104339999999
      1.4074908660000001	630.19074279999995
      1.4139626249999999	677.11087850000001
      1.420664664	730.8848299
      1.4277165590000001	793.52783980000004
      1.435287779	868.03580320000003
      1.4436331710000001	959.10175079999999
      1.453164339	1074.5891859999999
      1.464608755	1228.9034079999999
      1.479413587	1451.8548430000001
      1.5007295060000001	1812.597843
      1.531321148	2396.2922779999999
      1.5749716949999999	3340.7297119999998
      1.6351726849999999	4868.8615820000005
      1.6746062129999999	6056.7860730000002
      1.7053540309999999	7126.7301200000002
      1.7307497590000001	8135.9466300000004
      1.752580204	9119.3875740000003
      1.771845345	10098.25848
      1.789165838	11087.22133
      1.804957089	12097.58993
      1.819514077	13138.977849999999
      1.8330565510000001	14220.25051
      1.845754994	15350.15127
      1.8577465099999999	16537.778849999999
      1.869145125	17793.012470000001
      1.8800488470000001	19126.948680000001
      1.8905448170000001	20552.403480000001
      1.9007133519999999	22084.53774
      1.9106314310000001	23741.68173
      1.920376064	25546.46932
      1.930027954	27527.455720000002
      1.9396760099999999	29721.505959999999
      1.9494234969999999	32177.45292
      1.959397184	34961.935420000002
      1.969762051	38169.180130000001
      1.980746793	41938.394229999998
      1.9926918389999999	46487.096960000003
      2.0061495709999999	52181.595710000001
      2.022124024	59707.652569999998
      2.042772002	70576.241299999994
      2.0725625070000002	88161.987269999998
      2.1158769670000002	116616.322
      2.1803765140000002	162656.4026
      2.2792825830000001	237150.818
      2.3747656959999999	310949.48619999998
  <EndBlock>
  <BeginBlock>
    <BlockName> = "ShaftAir"
    <Mu_x> = 1
    <Mu_y> = 1
    <H_c> = 0
    <H_cAngle> = 0
    <J_re> = 0
    <J_im> = 0
    <Sigma> = 0
    <d_lam> = 0
    <Phi_h> = 0
    <Phi_hx> = 0
    <Phi_hy> = 0
    <LamType> = 0
    <LamFill> = 1
    <NStrands> = 0
    <WireD> = 0
    <BHPoints> = 3
      -100	-7.9577471545947675e-011
      0	0
      100	7.9577471545947675e-011
  <EndBlock>
  <BeginBlock>
    <BlockName> = "Copper"
    <Mu_x> = 1
    <Mu_y> = 1
    <H_c> = 0
    <H_cAngle> = 0
    <J_re> = 0
    <J_im> = 0
    <Sigma> = 58
    <d_lam> = 0
    <Phi_h> = 0
    <Phi_hx> = 0
    <Phi_hy> = 0
    <LamType> = 0
    <LamFill> = 1
    <NStrands> = 0
    <WireD> = 0
    <BHPoints> = 0
  <EndBlock>
  <BeginBlock>
    <BlockName> = "Aluminium"
    <Mu_x> = 1
    <Mu_y> = 1
    <H_c> = 0
    <H_cAngle> = 0
    <J_re> = 0
    <J_im> = 0
    <Sigma> = 29
    <d_lam> = 0
    <Phi_h> = 0
    <Phi_hx> = 0
    <Phi_hy> = 0
    <LamType> = 0
    <LamFill> = 1
    <NStrands> = 0
    <WireD> = 0
    <BHPoints> = 0
  <EndBlock>
  <BeginBlock>
    <BlockName> = "BMN-52UH"
    <Mu_x> = 1.05
    <Mu_y> = 1.05
    <H_c> = 1098926.9880154678
    <H_cAngle> = 0
    <J_re> = 0
    <J_im> = 0
    <Sigma> = 0.66600000000000004
    <d_lam> = 0
    <Phi_h> = 0
    <Phi_hx> = 0
    <Phi_hy> = 0
    <LamType> = 0
    <LamFill> = 1
    <NStrands> = 0
    <WireD> = 0
    <BHPoints> = 0
  <EndBlock>
  <BeginBlock>
    <BlockName> = "DW235"
    <Mu_x> = 1
    <Mu_y> = 1
    <H_c> = 0
    <H_cAngle> = 0
    <J_re> = 0
    <J_im> = 0
    <Sigma> = 0
    <d_lam> = 0
    <Phi_h> = 0
    <Phi_hx> = 0
    <Phi_hy> = 0
    <LamType> = 0
    <LamFill> = 1
    <NStrands> = 0
    <WireD> = 0
    <BHPoints> = 0
  <EndBlock>
  <BeginBlock>
    <BlockName> = "Air"
    <Mu_x> = 1
    <Mu_y> = 1
    <H_c> = 0
    <H_cAngle> = 0
    <J_re> = 0
    <J_im> = 0
    <Sigma> = 0
    <d_lam> = 0
    <Phi_h> = 0
    <Phi_hx> = 0
    <Phi_hy> = 0
    <LamType> = 0
    <LamFill> = 1
    <NStrands> = 0
    <WireD> = 0
    <BHPoints> = 0
  <EndBlock>
  <BeginBlock>
    <BlockName> = "BMN-52UH_1"
    <Mu_x> = 1.05
    <Mu_y> = 1.05
    <H_c> = 1023101.0258424005
    <H_cAngle> = 0
    <J_re> = 0
    <J_im> = 0
    <Sigma> = 0.66600000000000004
    <d_lam> = 0
    <Phi_h> = 0
    <Phi_hx> = 0
    <Phi_hy> = 0
    <LamType> = 0
    <LamFill> = 1
    <NStrands> = 0
    <WireD> = 0
    <BHPoints> = 0
  <EndBlock>
  <BeginBlock>
    <BlockName> = "BMN-52UH_2"
    <Mu_x> = 1.05
    <Mu_y> = 1.05
    <H_c> = 1023101.0258424005
    <H_cAngle> = 0
    <J_re> = 0
    <J_im> = 0
    <Sigma> = 0.66600000000000004
    <d_lam> = 0
    <Phi_h> = 0
    <Phi_hx> = 0
    <Phi_hy> = 0
    <LamType> = 0
    <LamFill> = 1
    <NStrands> = 0
    <WireD> = 0
    <BHPoints> = 0
  <EndBlock>
[CircuitProps]  = 6
  <BeginCircuit>
    <CircuitName> = "fase1"
    <TotalAmps_re> = -363.07145607202119
    <TotalAmps_im> = -0
    <CircuitType> = 1
  <EndCircuit>
  <BeginCircuit>
    <CircuitName> = "fase2"
    <TotalAmps_re> = 996.00939283682328
    <TotalAmps_im> = 0
    <CircuitType> = 1
  <EndCircuit>
  <BeginCircuit>
    <CircuitName> = "fase3"
    <TotalAmps_re> = -632.93793676480232
    <TotalAmps_im> = -0
    <CircuitType> = 1
  <EndCircuit>
  <BeginCircuit>
    <CircuitName> = "fase1n"
    <TotalAmps_re> = 363.07145607202119
    <TotalAmps_im> = 0
    <CircuitType> = 1
  <EndCircuit>
  <BeginCircuit>
    <CircuitName> = "fase2n"
    <TotalAmps_re> = -996.00939283682328
    <TotalAmps_im> = -0
    <CircuitType> = 1
  <EndCircuit>
  <BeginCircuit>
    <CircuitName> = "fase3n"
    <TotalAmps_re> = 632.93793676480232
    <TotalAmps_im> = 0
    <CircuitType> = 1
  <EndCircuit>
[NumPoints] = 201
847.01088020107215	75.648907103728305	0	2
854.71050616474975	68.019382146488454	0	2
856.43303105425639	68.154947795340519	0	2
863.00983857713868	74.792183828396389	0	2
865.13098300790125	105.30988552103133	0	2
864.58906337909059	120.89148640523399	0	2
850.12050713440397	120.38827786537864	0	2
863.07917667211791	75.789777046388892	0	2
847.2973956859887	76.886695719472328	0	2
865.11355637880797	105.05916206228916	0	2
849.33177539267876	106.1560807353726	0	2
854.8281771815449	66.524230115575847	0	2
848.41686704547385	57.784150402392662	0	2
856.55070207105155	66.659795764427912	0	2
864.08483064791767	61.133114487315368	0	2
870.9538806094447	31.322956438038744	0	2
872.85613230931938	15.848416009677059	0	2
858.48698884246153	14.082048361338067	0	2
864.30937303727205	60.158650165042353	0	2
848.89348784926256	56.606421915109536	0	2
870.89744674093208	31.567866949552396	0	2
855.48156155292259	28.015638699619579	0	2
875	0	0	20
386.11000000000001	0	0	2
864.22729802074559	136.880156910202	0	20
381.35634518718865	60.400911296683546	0	2
0	0	0	2
1250	0	0	1
877	0	0	20
1234.6104257439222	195.54308130028858	0	1
866.20267470193585	137.19302584028247	0	20
888.08033765196376	7.391074856031902	0	1
888.09066874381358	5.8126228330204155	0	1
888.43928423111834	8.7666311747874026	0	1
1222.8797480931642	13.144696668926455	0	1
1228.0986956062586	8.0380019411540005	0	1
1222.9470397817515	2.8634308040531966	0	1
888.47792113889182	2.8634308040531975	0	1
888.1009998356634	4.234170810008929	0	1
1058.1158166601278	2.8634308040531984	0	1
1058.0626464623044	10.987122620734363	0	1
876.96946452236239	7.3183533230613254	0	1
876.99012670606203	4.1614492770383524	0	1
887.90750747425739	19.015054099445507	0	1
887.93849897962752	17.436872536062271	0	1
888.24841782568967	20.395191036506944	0	1
1222.6029222551431	29.15057186580097	0	1
1227.8882672170359	24.112628553209127	0	1
1222.8047857908209	18.871067642905558	0	1
888.36432192877498	14.493002148766504	0	1
887.96949048499766	15.858690972679035	0	1
1057.9876841599614	16.713493594713466	0	1
1057.8281826769312	24.835793458622717	0	1
876.79853813556792	18.796901960994084	0	1
876.86052114630809	15.640538834227609	0	1
887.58253891610582	30.635775211228939	0	1
887.63418552476128	29.058134520760337	0	1
887.90535462658193	32.020256287237103	0	1
1222.1166097003706	45.151452262253841	0	1
1227.4674464944114	40.183123590493814	0	1
1222.4530104948612	34.875471021465827	0	1
888.09850606540783	26.120090192171798	0	1
887.68583213341674	27.480493830291735	0	1
1057.6782709166498	30.560692614287579	0	1
1057.4124654781708	38.680208811156952	0	1
876.47737683303512	30.27222984654254	0	1
876.58067005034616	27.116948465605333	0	1
887.10548765919816	42.251247040643342	0	1
887.17778052175868	40.674417543699967	0	1
887.41015341590821	43.639835031893185	0	1
1221.4208937559995	61.144596189801881	0	1
1226.8363055438499	56.246733456414567	0	1
1221.8917741687587	50.873898667605985	0	1
887.6805190949699	37.742702692589255	0	1
887.25007338431897	39.097588046756591	0	1
1057.1876299465591	44.402655216509118	0	1
1056.8155660970249	52.517996509037658	0	1
876.00603564409982	41.742370741348665	0	1
876.15062136922063	38.588711747461915	0	1
886.47643544381185	53.859479336387324	0	1
886.56936217326722	52.283731214585941	0	1
886.76289904384657	55.251936315475028	0	1
1220.5158936293751	77.127263305566032	0	1
1225.9949525081042	72.300705734116534	0	1
1221.1211729774682	66.863609333108982	0	1
887.11043263737679	49.358848175200301	0	1
886.66228890272259	50.707983092784552	0	1
1056.5158453184938	58.237009652344788	0	1
1056.0375868091296	66.346785518579921	0	1
875.38459533064827	53.205359295818553	0	1
875.57044878955924	50.053863052215796	0	1
885.69549005480519	65.458483087616386	0	1
885.80903472863895	63.88408633728568	0	1
885.9637024141017	66.854570464206958	0	1
1219.4017643876107	93.096715061815019	0	1
1224.9435315486853	88.342289658095993	0	1
1220.1413389595371	82.841863263367571	0	1
886.3883443740084	60.966536273276567	0	1
885.92257940247271	62.309689586954988	0	1
1055.6630321392915	72.061385476381474	0	1
1055.078660917231	80.164206347977768	0	1
874.61316237327912	64.65923138587506	0	1
874.84025172094664	61.510437885213669	0	1
884.76278530315062	77.046270864749573	0	1
884.89692846606738	75.47349525066771	0	1
885.01270046490185	78.445749426458136	0	1
1218.0786969310157	109.05021517520136	0	1
1223.6822228211622	104.3687365855299	0	1
1218.95244000448	98.805922666827058	0	1
885.5143780309711	72.563778069218998	0	1
885.03107162898414	73.900719636585862	0	1
1054.6293365341005	85.873413952989821	0	1
1053.938952728344	93.967891453304347	0	1
873.69186895305825	76.102024449500234	0	1
873.96015527889165	72.956473221336509	0	1
883.67848100300569	88.620857160005357	0	1
883.833199670265	87.049972169177138	0	1
883.91005614553512	90.023487113384888	0	1
1216.5469179603879	124.98503009560946	0	1
1222.2112424442919	120.37730046724158	0	1
1217.5546798240125	114.75305218409184	0	1
884.48868335789871	84.148586435348605	0	1
883.98791833752443	85.479087178348934	0	1
1053.4149356213411	99.670728462194845	0	1
1052.6186575255995	107.7554756441784	0	1
872.6208729288702	87.531777823010245	0	1
872.93031026338895	84.390007841353807	0	1
882.44276294432996	100.18025872760821	0	1
882.61803060568479	98.611533523089875	0	1
882.6559583884291	101.58579973923693	0	1
1214.8066899381679	140.89842947453539	0	1
1220.5308424629893	136.36523831822228	0	1
1215.9482979171457	130.68051935661524	0	1
883.31143610229299	95.71897637439065	0	1
882.79329826703952	97.042808318571545	0	1
1052.0200374823578	113.45096490518421	0	1
1051.1180015347836	121.52459648902756	0	1
871.40035781037022	98.946533077005128	0	1
871.7508931330799	95.809082667968468	0	1
881.05584286105147	111.72249492360747	0	1
881.25162948529032	110.15619829838701	0	1
881.25062207677865	113.13070616126883	0	1
1212.8583110434693	156.78768663291797	0	1
1218.6413108051406	152.32981068762729	0	1
1214.13356952915	146.58559509489203	0	1
881.98283797941087	107.27296535959357	0	1
881.44741610952906	108.58990167316654	0	1
1050.444881125766	127.21176210938424	0	1
1049.4372418855751	135.27289471987868	0	1
870.03053272654086	110.34433435193543	0	1
870.42210597501844	107.21174110149448	0	1
879.51795839478666	123.24558804525053	0	1
879.73423043487935	121.68198837619133	0	1
879.69428800772585	124.6562282191984	0	1
1210.7021151209847	172.65007902834117	0	1
1216.5429712322682	168.26828212816696	0	1
1212.1108056043918	162.465554146074	0	1
880.50311663770117	118.80857367442484	0	1
879.95050247497193	120.11838870713214	0	1
1048.6897364464978	140.95076223303474	0	1
1047.5766665674871	148.99801463660626	0	1
868.51163238985805	121.72322869322868	0	1
868.94417647004343	118.59602935511026	0	1
877.8293730541219	134.74756366985207	0	1
878.06609345296761	133.18692887170801	0	1
877.98722285110159	136.16039107415466	0	1
1208.3384716237858	188.48288872152793	0	1
1214.2361832840554	184.17792166481149	0	1
1209.880352733057	178.31767556092797	0	1
878.87252561979801	130.32382475178522	0	1
878.30281385181331	131.62629407356394	0	1
1046.7549041795596	154.66561116919308	0	1
1045.5365943805223	162.69760451056976	0	1
866.84391705607561	133.08126638591824	0	1
867.31735785376702	129.95999678963011	0	1
1249.8929094675088	16.361994464180551	0	1
876.92486528240408	11.479575316069074	0	1
1249.5716562194466	32.721185384841434	0	1
876.69947400356375	22.957183666004752	0	1
1249.0362953009037	49.074769698835766	0	1
876.323864783114	34.430858420703174	0	1
1248.2869184432172	65.419945303679782	0	1
875.79810197976121	45.898633625061734	0	1
1247.3236540482544	81.753911537678832	0	1
875.12227568025526	57.358544334835464	0	1
1246.14666716641	98.073869659806178	0	1
874.29650168395324	68.808626953320015	0	1
1244.7561594683273	114.37702332925298	0	1
873.32092148297841	80.246919567803886	0	1
1243.1523692103417	130.66057908456685	0	1
872.19570223797564	91.67146228573209	0	1
1241.3355711936579	146.92174682229705	0	1
870.92103674947032	103.08029757052361	0	1
1239.3060767172631	163.15774027506447	0	1
869.49714342483173	114.47147057698523	0	1
1237.0642335245877	179.36577748897415	0	1
867.92426624085078	125.84302948626426	0	1
876.33333333333337	0	0	20
865.54421580820576	137.08873619692233	0	20
875.66666666666663	0	0	20
864.88575691447556	136.98444655356215	0	20
[NumSegments] = 169
2	1	2.7777777777777777	0	0	2
4	9	2.7777777777777777	0	0	2
0	6	2.7777777777777777	0	0	2
7	3	2.7777777777777777	0	0	2
7	8	2.7777777777777777	0	0	2
9	7	2.7777777777777777	0	0	2
10	9	2.7777777777777777	0	0	2
8	10	2.7777777777777777	0	0	2
13	11	2.7777777777777777	0	0	2
15	20	2.7777777777777777	0	0	2
12	17	2.7777777777777777	0	0	2
18	14	2.7777777777777777	0	0	2
18	19	2.7777777777777777	0	0	2
20	18	2.7777777777777777	0	0	2
21	20	2.7777777777777777	0	0	2
19	21	2.7777777777777777	0	0	2
22	23	-1	4	0	2
25	24	-1	4	0	2
23	26	-1	2	0	2
26	25	-1	2	0	2
27	28	-1	10	0	1
30	29	-1	10	0	1
31	32	2.7777777777777777	0	0	1
33	31	2.7777777777777777	0	0	1
34	40	2.7777777777777777	0	0	1
37	39	2.7777777777777777	0	0	1
38	37	2.7777777777777777	0	0	1
32	38	2.7777777777777777	0	0	1
39	36	2.7777777777777777	0	0	1
40	33	2.7777777777777777	0	0	1
39	40	2.7777777777777777	0	0	1
31	41	2.7777777777777777	0	0	1
42	38	2.7777777777777777	0	0	1
43	44	2.7777777777777777	0	0	1
45	43	2.7777777777777777	0	0	1
46	52	2.7777777777777777	0	0	1
49	51	2.7777777777777777	0	0	1
50	49	2.7777777777777777	0	0	1
44	50	2.7777777777777777	0	0	1
51	48	2.7777777777777777	0	0	1
52	45	2.7777777777777777	0	0	1
51	52	2.7777777777777777	0	0	1
43	53	2.7777777777777777	0	0	1
54	50	2.7777777777777777	0	0	1
55	56	2.7777777777777777	0	0	1
57	55	2.7777777777777777	0	0	1
58	64	2.7777777777777777	0	0	1
61	63	2.7777777777777777	0	0	1
62	61	2.7777777777777777	0	0	1
56	62	2.7777777777777777	0	0	1
63	60	2.7777777777777777	0	0	1
64	57	2.7777777777777777	0	0	1
63	64	2.7777777777777777	0	0	1
55	65	2.7777777777777777	0	0	1
66	62	2.7777777777777777	0	0	1
67	68	2.7777777777777777	0	0	1
69	67	2.7777777777777777	0	0	1
70	76	2.7777777777777777	0	0	1
73	75	2.7777777777777777	0	0	1
74	73	2.7777777777777777	0	0	1
68	74	2.7777777777777777	0	0	1
75	72	2.7777777777777777	0	0	1
76	69	2.7777777777777777	0	0	1
75	76	2.7777777777777777	0	0	1
67	77	2.7777777777777777	0	0	1
78	74	2.7777777777777777	0	0	1
79	80	2.7777777777777777	0	0	1
81	79	2.7777777777777777	0	0	1
82	88	2.7777777777777777	0	0	1
85	87	2.7777777777777777	0	0	1
86	85	2.7777777777777777	0	0	1
80	86	2.7777777777777777	0	0	1
87	84	2.7777777777777777	0	0	1
88	81	2.7777777777777777	0	0	1
87	88	2.7777777777777777	0	0	1
79	89	2.7777777777777777	0	0	1
90	86	2.7777777777777777	0	0	1
91	92	2.7777777777777777	0	0	1
93	91	2.7777777777777777	0	0	1
94	100	2.7777777777777777	0	0	1
97	99	2.7777777777777777	0	0	1
98	97	2.7777777777777777	0	0	1
92	98	2.7777777777777777	0	0	1
99	96	2.7777777777777777	0	0	1
100	93	2.7777777777777777	0	0	1
99	100	2.7777777777777777	0	0	1
91	101	2.7777777777777777	0	0	1
102	98	2.7777777777777777	0	0	1
103	104	2.7777777777777777	0	0	1
105	103	2.7777777777777777	0	0	1
106	112	2.7777777777777777	0	0	1
109	111	2.7777777777777777	0	0	1
110	109	2.7777777777777777	0	0	1
104	110	2.7777777777777777	0	0	1
111	108	2.7777777777777777	0	0	1
112	105	2.7777777777777777	0	0	1
111	112	2.7777777777777777	0	0	1
103	113	2.7777777777777777	0	0	1
114	110	2.7777777777777777	0	0	1
115	116	2.7777777777777777	0	0	1
117	115	2.7777777777777777	0	0	1
118	124	2.7777777777777777	0	0	1
121	123	2.7777777777777777	0	0	1
122	121	2.7777777777777777	0	0	1
116	122	2.7777777777777777	0	0	1
123	120	2.7777777777777777	0	0	1
124	117	2.7777777777777777	0	0	1
123	124	2.7777777777777777	0	0	1
115	125	2.7777777777777777	0	0	1
126	122	2.7777777777777777	0	0	1
127	128	2.7777777777777777	0	0	1
129	127	2.7777777777777777	0	0	1
130	136	2.7777777777777777	0	0	1
133	135	2.7777777777777777	0	0	1
134	133	2.7777777777777777	0	0	1
128	134	2.7777777777777777	0	0	1
135	132	2.7777777777777777	0	0	1
136	129	2.7777777777777777	0	0	1
135	136	2.7777777777777777	0	0	1
127	137	2.7777777777777777	0	0	1
138	134	2.7777777777777777	0	0	1
139	140	2.7777777777777777	0	0	1
141	139	2.7777777777777777	0	0	1
142	148	2.7777777777777777	0	0	1
145	147	2.7777777777777777	0	0	1
146	145	2.7777777777777777	0	0	1
140	146	2.7777777777777777	0	0	1
147	144	2.7777777777777777	0	0	1
148	141	2.7777777777777777	0	0	1
147	148	2.7777777777777777	0	0	1
139	149	2.7777777777777777	0	0	1
150	146	2.7777777777777777	0	0	1
151	152	2.7777777777777777	0	0	1
153	151	2.7777777777777777	0	0	1
154	160	2.7777777777777777	0	0	1
157	159	2.7777777777777777	0	0	1
158	157	2.7777777777777777	0	0	1
152	158	2.7777777777777777	0	0	1
159	156	2.7777777777777777	0	0	1
160	153	2.7777777777777777	0	0	1
159	160	2.7777777777777777	0	0	1
151	161	2.7777777777777777	0	0	1
162	158	2.7777777777777777	0	0	1
163	164	2.7777777777777777	0	0	1
165	163	2.7777777777777777	0	0	1
166	172	2.7777777777777777	0	0	1
169	171	2.7777777777777777	0	0	1
170	169	2.7777777777777777	0	0	1
164	170	2.7777777777777777	0	0	1
171	168	2.7777777777777777	0	0	1
172	165	2.7777777777777777	0	0	1
171	172	2.7777777777777777	0	0	1
163	173	2.7777777777777777	0	0	1
174	170	2.7777777777777777	0	0	1
175	176	2.7777777777777777	0	0	1
177	178	2.7777777777777777	0	0	1
179	180	2.7777777777777777	0	0	1
181	182	2.7777777777777777	0	0	1
183	184	2.7777777777777777	0	0	1
185	186	2.7777777777777777	0	0	1
187	188	2.7777777777777777	0	0	1
189	190	2.7777777777777777	0	0	1
191	192	2.7777777777777777	0	0	1
193	194	2.7777777777777777	0	0	1
195	196	2.7777777777777777	0	0	1
197	28	0.27777777777777779	7	0	20
198	30	0.27777777777777779	7	0	20
199	22	0.27777777777777779	5	0	20
200	24	0.27777777777777779	5	0	20
[NumArcSegments] = 84
0	1	98.475970478616659	5.5606287098219616	0	0	2	5.5606287098219616
2	3	81.524029521379575	5.5606287098220406	0	0	2	5.5606287098220406
4	5	11.935767461738601	0.5306738712669884	0	0	2	0.5306738712669884
5	6	168.06423253825591	5.4669147352864247	0	0	2	5.4669147352864247
11	12	98.475970478617683	5.5606287098220415	0	0	2	5.5606287098220415
14	13	81.524029521378822	5.5606287098219767	0	0	2	5.5606287098219767
16	15	11.935767461738655	0.53067387126690824	0	0	2	0.53067387126690824
17	16	168.06423253825554	5.4669147352159575	0	0	2	5.4669147352159575
22	24	9	0.045472840883398674	0	0	2	0.045472840883398674
23	25	9.0000000000000018	0.1030502597005357	0	0	2	0.1030502597005357
27	175	0.75	2.7777777777777777	1	0	1	0.11
28	42	0.27187500000000003	0.045369139991988411	0	0	1	0.045369139991988411
35	34	90.254293954113081	7.7234087923462873	0	0	1	7.7234087923462873
36	35	90.254293954115425	7.7234087923464054	0	0	1	7.7234087923464054
41	176	0.27187500000000031	0.045369139991988411	0	0	1	0.045369139991988411
42	41	0.20624999999999996	0.045369139991988411	0	0	1	0.045369139991988411
47	46	90.254293954112526	7.7234087923460235	0	0	1	7.7234087923460235