[Format]      =  4.0
[Frequency]   =  0
[Precision]   =  1e-008
[MinAngle]    =  15
[DoSmartMesh] =  1
[Depth]       =  134
[LengthUnits] =  millimeters
[ProblemType] =  planar
[Coordinates] =  cartesian
[ACSolver]    =  0
[PrevType]    =  0
[PrevSoln]    =  ""
[Comment]     =  "Add comments here."
[PointProps]   = 0
[BdryProps]   = 11
  <BeginBdry>
    <BdryName> = "A=0"
    <BdryType> = 0
    <A_0> = 0
    <A_1> = 0
    <A_2> = 0
    <Phi> = 0
    <c0> = 0
    <c0i> = 0
    <c1> = 0
    <c1i> = 0
    <Mu_ssd> = 0
    <Sigma_ssd> = 0
    <innerangle> = 0
    <outerangle> = 0
  <EndBdry>
  <BeginBdry>
    <BdryName> = "APr1"
    <BdryType> = 5
    <A_0> = 0
    <A_1> = 0
    <A_2> = 0
    <Phi> = 0
    <c0> = 0
    <c0i> = 0
    <c1> = 0
    <c1i> = 0
    <Mu_ssd> = 0
    <Sigma_ssd> = 0
    <innerangle> = 0
    <outerangle> = 0
  <EndBdry>
  <BeginBdry>
    <BdryName> = "APr2"
    <BdryType> = 5
    <A_0> = 0
    <A_1> = 0
    <A_2> = 0
    <Phi> = 0
    <c0> = 0
    <c0i> = 0
    <c1> = 0
    <c1i> = 0
    <Mu_ssd> = 0
    <Sigma_ssd> = 0
    <innerangle> = 0
    <outerangle> = 0
  <EndBdry>
  <BeginBdry>
    <BdryName> = "APr3"
    <BdryType> = 5
    <A_0> = 0
    <A_1> = 0
    <A_2> = 0
    <Phi> = 0
    <c0> = 0
    <c0i> = 0
    <c1> = 0
    <c1i> = 0
    <Mu_ssd> = 0
    <Sigma_ssd> = 0
    <innerangle> = 0
    <outerangle> = 0
  <EndBdry>
  <BeginBdry>
    <BdryName> = "APg1"
    <BdryType> = 5
    <A_0> = 0
    <A_1> = 0
    <A_2> = 0
    <Phi> = 0
    <c0> = 0
    <c0i> = 0
    <c1> = 0
    <c1i> = 0
    <Mu_ssd> = 0
    <Sigma_ssd> = 0
    <innerangle> = 0
    <outerangle> = 0
  <EndBdry>
  <BeginBdry>
    <BdryName> = "APg2"
    <BdryType> = 5
    <A_0> = 0
    <A_1> = 0
    <A_2> = 0
    <Phi> = 0
    <c0> = 0
    <c0i> = 0
    <c1> = 0
    <c1i> = 0
    <Mu_ssd> = 0
    <Sigma_ssd> = 0
    <innerangle> = 0
    <outerangle> = 0
  <EndBdry>
  <BeginBdry>
    <BdryName> = "APg3"
    <BdryType> = 5
    <A_0> = 0
    <A_1> = 0
    <A_2> = 0
    <Phi> = 0
    <c0> = 0
    <c0i> = 0
    <c1> = 0
    <c1i> = 0
    <Mu_ssd> = 0
    <Sigma_ssd> = 0
    <innerangle> = 0
    <outerangle> = 0
  <EndBdry>
  <BeginBdry>
    <BdryName> = "APs1"
    <BdryType> = 5
    <A_0> = 0
    <A_1> = 0
    <A_2> = 0
    <Phi> = 0
    <c0> = 0
    <c0i> = 0
    <c1> = 0
    <c1i> = 0
    <Mu_ssd> = 0
    <Sigma_ssd> = 0
    <innerangle> = 0
    <outerangle> = 0
  <EndBdry>
  <BeginBdry>
    <BdryName> = "APs2"
    <BdryType> = 5
    <A_0> = 0
    <A_1> = 0
    <A_2> = 0
    <Phi> = 0
    <c0> = 0
    <c0i> = 0
    <c1> = 0
    <c1i> = 0
    <Mu_ssd> = 0
    <Sigma_ssd> = 0
    <innerangle> = 0
    <outerangle> = 0
  <EndBdry>
  <BeginBdry>
    <BdryName> = "APs3"
    <BdryType> = 5
    <A_0> = 0
    <A_1> = 0
    <A_2> = 0
    <Phi> = 0
    <c0> = 0
    <c0i> = 0
    <c1> = 0
    <c1i> = 0
    <Mu_ssd> = 0
    <Sigma_ssd> = 0
    <innerangle> = 0
    <outerangle> = 0
  <EndBdry>
  <BeginBdry>
    <BdryName> = "AGap"
    <BdryType> = 7
    <A_0> = 0
    <A_1> = 0
    <A_2> = 0
    <Phi> = 0
    <c0> = 0
    <c0i> = 0
    <c1> = 0
    <c1i> = 0
    <Mu_ssd> = 0
    <Sigma_ssd> = 0
    <innerangle> = 18.666666666666668
    <outerangle> = 0
  <EndBdry>
[BlockProps]  = 9
  <BeginBlock>
    <BlockName> = "M270-35A"
    <Mu_x> = 1
    <Mu_y> = 1
    <H_c> = 0
    <H_cAngle> = 0
    <J_re> = 0
    <J_im> = 0
    <Sigma> = 0
    <d_lam> = 0
    <Phi_h> = 0
    <Phi_hx> = 0
    <Phi_hy> = 0
    <LamType> = 0
    <LamFill> = 1
    <NStrands> = 0
    <WireD> = 0
    <BHPoints> = 200
      0	0
      0.0045422769999999999	3.2767874890000002
      0.0090353559999999996	6.114592773
      0.013222249	8.4602422570000009
      0.017196487	10.462328400000001
      0.020991169	12.199266809999999
      0.024640190999999999	13.72982376
      0.028168996000000002	15.09561901
      0.031597466999999997	16.327217480000002
      0.034941272000000002	17.447599879999999
      0.038212956999999999	18.47443998
      0.041422729999999998	19.421601849999998
      0.044579012000000001	20.300151339999999
      0.047688851999999997	21.119056130000001
      0.050758219	21.885681389999998
      0.053792226999999998	22.60614816
      0.056795300999999999	23.285597330000002
      0.059771310000000001	23.928387470000001
      0.062723663999999998	24.538245379999999
      0.065655396000000005	25.11838217
      0.068569221	25.67158405
      0.071467592999999996	26.200284
      0.074352739000000001	26.70661905
      0.077226698999999996	27.19247648
      0.080091349000000006	27.65953137
      0.082948429000000004	28.109277410000001
      0.085799557999999998	28.54305239
      0.088646256000000007	28.96205934
      0.091489953999999998	29.36738437
      0.094332005999999996	29.760011540000001
      0.097173704999999999	30.140835630000002
      0.100016285	30.510672870000001
      0.102860934	30.870270300000001
      0.105708802	31.220313650000001
      0.108561001	31.561434299999998
      0.11141862	31.894215259999999
      0.114282722	32.21919639
      0.117154355	32.536878999999999
      0.120034552	32.847729870000002
      0.12292433699999999	33.152184810000001
      0.12582473199999999	33.45065185
      0.12873675200000001	33.743513989999997
      0.13166142	34.031131799999997
      0.13459976100000001	34.313845620000002
      0.137552811	34.591977620000002
      0.14052161499999999	34.865833639999998
      0.14350723800000001	35.135704879999999
      0.14651076099999999	35.401869419999997
      0.14953328699999999	35.664593680000003
      0.15257594699999999	35.924133650000002
      0.155639899	36.180736189999998
      0.158726334	36.434640119999997
      0.161836481	36.686077320000003
      0.16497160599999999	36.93527375
      0.16813302299999999	37.182450420000002
      0.17132209400000001	37.427824389999998
      0.17454023399999999	37.671609650000001
      0.17778891699999999	37.914018050000003
      0.18106968000000001	38.155260249999998
      0.18438413100000001	38.395546590000002
      0.18773395400000001	38.635088090000004
      0.191120915	38.87409736
      0.19454686800000001	39.112789630000002
      0.19801376800000001	39.351383830000003
      0.20152367299999999	39.590103640000002
      0.20507876	39.829178749999997
      0.208681327	40.068846100000002
      0.21233381500000001	40.309351300000003
      0.216038808	40.550950149999998
      0.21979905799999999	40.793910310000001
      0.22361749	41.038513199999997
      0.227497227	41.285056060000002
      0.2314416	41.53385428
      0.23545417299999999	41.785244059999997
      0.23953876299999999	42.039585369999998
      0.24369946200000001	42.297265359999997
      0.247940667	42.558702250000003
      0.25226710400000002	42.824349750000003
      0.25668386300000001	43.0947022
      0.26119642799999998	43.370300520000001
      0.26581071499999998	43.651739030000002
      0.27054201700000002	43.94020278
      0.275438138	44.23873004
      0.28051031599999998	44.548036490000001
      0.28576849199999999	44.868763260000001
      0.29122336399999998	45.201605100000002
      0.296886504	45.547319020000003
      0.30277045699999999	45.906731970000003
      0.30888884599999999	46.280749559999997
      0.31525650100000002	46.670366299999998
      0.321889598	47.076677459999999
      0.328805825	47.50089294
      0.33602457000000002	47.944353649999996
      0.34356714500000002	48.408550759999997
      0.351457032	48.895148689999999
      0.35972019	49.406012390000001
      0.36838539799999998	49.943240269999997
      0.37748466600000002	50.509203810000002
      0.38705371900000002	51.106595769999998
      0.39713256899999999	51.738489119999997
      0.40776619800000002	52.408409570000003
      0.41900536300000002	53.120425429999997
      0.43090757000000002	53.879259759999997
      0.44353822799999998	54.690431349999997
      0.45697202599999998	55.560433060000001
      0.47129457299999999	56.49695913
      0.486604327	57.509196449999997
      0.503014823	58.60819978
      0.520657166	59.807376320000003
      0.53968265500000001	61.123111049999999
      0.56026517099999995	62.575567960000001
      0.58260257699999995	64.189698669999999
      0.60691558199999995	65.996464399999994
      0.63344113800000001	68.034201780000004
      0.662415215	70.349880479999996
      0.69403682899999997	72.999622560000006
      0.72840307800000004	76.047204840000006
      0.76540934699999996	79.558509650000005
      0.80463064699999998	83.589963030000007
      0.84524547999999999	88.171938179999998
      0.88609953900000005	93.294734669999997
      0.92594964300000004	98.90894376
      0.963771241	104.9435902
      0.99893980100000002	111.3300564
      1.0312218310000001	118.0174305
      1.0606584889999999	124.9760964
      1.0874410889999999	132.19454709999999
      1.1118223309999999	139.6744898
      1.1340651580000001	147.42664859999999
      1.1544176930000001	155.46782519999999
      1.173103241	163.8190534
      1.1903180360000001	172.50453999999999
      1.2062325739999999	181.55112829999999
      1.220994358	190.98810510000001
      1.234730984	200.84723579999999
      1.2475531	211.16296399999999
      1.2595570490000001	221.97273730000001
      1.270827143	233.31744900000001
      1.281437594	245.2419931
      1.291454146	257.79594609999998
      1.3009354369999999	271.03439809999998
      1.309934159	285.01896390000002
      1.318498043	299.81902289999999
      1.326670706	315.51324579999999
      1.3344924010000001	332.19149570000002
      1.3420006879999999	349.95721329999998
      1.3492310569999999	368.93044570000001
      1.356217531	389.25173360000002
      1.362993272	411.08716509999999
      1.3695912379999999	434.63503709999998
      1.3760449050000001	460.1347695
      1.382389146	487.87903890000001
      1.3886613240000001	518.23060969999995
      1.394902732	551.64618570000005
      1.401160583	588.71104339999999
      1.4074908660000001	630.19074279999995
      1.4139626249999999	677.11087850000001
      1.420664664	730.8848299
      1.4277165590000001	793.52783980000004
      1.435287779	868.03580320000003
      1.4436331710000001	959.10175079999999
      1.453164339	1074.5891859999999
      1.464608755	1228.9034079999999
      1.479413587	1451.8548430000001
      1.5007295060000001	1812.597843
      1.531321148	2396.2922779999999
      1.5749716949999999	3340.7297119999998
      1.6351726849999999	4868.8615820000005
      1.6746062129999999	6056.7860730000002
      1.7053540309999999	7126.7301200000002
      1.7307497590000001	8135.9466300000004
      1.752580204	9119.3875740000003
      1.771845345	10098.25848
      1.789165838	11087.22133
      1.804957089	12097.58993
      1.819514077	13138.977849999999
      1.8330565510000001	14220.25051
      1.845754994	15350.15127
      1.8577465099999999	16537.778849999999
      1.869145125	17793.012470000001
      1.8800488470000001	19126.948680000001
      1.8905448170000001	20552.403480000001
      1.9007133519999999	22084.53774
      1.9106314310000001	23741.68173
      1.920376064	25546.46932
      1.930027954	27527.455720000002
      1.9396760099999999	29721.505959999999
      1.9494234969999999	32177.45292
      1.959397184	34961.935420000002
      1.969762051	38169.180130000001
      1.980746793	41938.394229999998
      1.9926918389999999	46487.096960000003
      2.0061495709999999	52181.595710000001
      2.022124024	59707.652569999998
      2.042772002	70576.241299999994
      2.0725625070000002	88161.987269999998
      2.1158769670000002	116616.322
      2.1803765140000002	162656.4026
      2.2792825830000001	237150.818
      2.3747656959999999	310949.48619999998
  <EndBlock>
  <BeginBlock>
    <BlockName> = "ShaftAir"
    <Mu_x> = 1
    <Mu_y> = 1
    <H_c> = 0
    <H_cAngle> = 0
    <J_re> = 0
    <J_im> = 0
    <Sigma> = 0
    <d_lam> = 0
    <Phi_h> = 0
    <Phi_hx> = 0
    <Phi_hy> = 0
    <LamType> = 0
    <LamFill> = 1
    <NStrands> = 0
    <WireD> = 0
    <BHPoints> = 3
      -100	-7.9577471545947675e-011
      0	0
      100	7.9577471545947675e-011
  <EndBlock>
  <BeginBlock>
    <BlockName> = "Copper"
    <Mu_x> = 1
    <Mu_y> = 1
    <H_c> = 0
    <H_cAngle> = 0
    <J_re> = 0
    <J_im> = 0
    <Sigma> = 58
    <d_lam> = 0
    <Phi_h> = 0
    <Phi_hx> = 0
    <Phi_hy> = 0
    <LamType> = 0
    <LamFill> = 1
    <NStrands> = 0
    <WireD> = 0
    <BHPoints> = 0
  <EndBlock>
  <BeginBlock>
    <BlockName> = "Aluminium"
    <Mu_x> = 1
    <Mu_y> = 1
    <H_c> = 0
    <H_cAngle> = 0
    <J_re> = 0
    <J_im> = 0
    <Sigma> = 29
    <d_lam> = 0
    <Phi_h> = 0
    <Phi_hx> = 0
    <Phi_hy> = 0
    <LamType> = 0
    <LamFill> = 1
    <NStrands> = 0
    <WireD> = 0
    <BHPoints> = 0
  <EndBlock>
  <BeginBlock>
    <BlockName> = "Ferrite 35H"
    <Mu_x> = 1.3
    <Mu_y> = 1.3
    <H_c> = 250000
    <H_cAngle> = 0
    <J_re> = 0
    <J_im> = 0
    <Sigma> = 0
    <d_lam> = 0
    <Phi_h> = 0
    <Phi_hx> = 0
    <Phi_hy> = 0
    <LamType> = 0
    <LamFill> = 1
    <NStrands> = 0
    <WireD> = 0
    <BHPoints> = 0
  <EndBlock>
  <BeginBlock>
    <BlockName> = "DW235"
    <Mu_x> = 1
    <Mu_y> = 1
    <H_c> = 0
    <H_cAngle> = 0
    <J_re> = 0
    <J_im> = 0
    <Sigma> = 0
    <d_lam> = 0
    <Phi_h> = 0
    <Phi_hx> = 0
    <Phi_hy> = 0
    <LamType> = 0
    <LamFill> = 1
    <NStrands> = 0
    <WireD> = 0
    <BHPoints> = 0
  <EndBlock>
  <BeginBlock>
    <BlockName> = "Air"
    <Mu_x> = 1
    <Mu_y> = 1
    <H_c> = 0
    <H_cAngle> = 0
    <J_re> = 0
    <J_im> = 0
    <Sigma> = 0
    <d_lam> = 0
    <Phi_h> = 0
    <Phi_hx> = 0
    <Phi_hy> = 0
    <LamType> = 0
    <LamFill> = 1
    <NStrands> = 0
    <WireD> = 0
    <BHPoints> = 0
  <EndBlock>
  <BeginBlock>
    <BlockName> = "Ferrite 35H_1"
    <Mu_x> = 1.3
    <Mu_y> = 1.3
    <H_c> = 354474.7863294413
    <H_cAngle> = 0
    <J_re> = 0
    <J_im> = 0
    <Sigma> = 0
    <d_lam> = 0
    <Phi_h> = 0
    <Phi_hx> = 0
    <Phi_hy> = 0
    <LamType> = 0
    <LamFill> = 1
    <NStrands> = 0
    <WireD> = 0
    <BHPoints> = 0
  <EndBlock>
  <BeginBlock>
    <BlockName> = "Ferrite 35H_2"
    <Mu_x> = 1.3
    <Mu_y> = 1.3
    <H_c> = 354474.7863294413
    <H_cAngle> = 0
    <J_re> = 0
    <J_im> = 0
    <Sigma> = 0
    <d_lam> = 0
    <Phi_h> = 0
    <Phi_hx> = 0
    <Phi_hy> = 0
    <LamType> = 0
    <LamFill> = 1
    <NStrands> = 0
    <WireD> = 0
    <BHPoints> = 0
  <EndBlock>
[CircuitProps]  = 6
  <BeginCircuit>
    <CircuitName> = "fase1"
    <TotalAmps_re> = 71.325152905375617
    <TotalAmps_im> = 0
    <CircuitType> = 1
  <EndCircuit>
  <BeginCircuit>
    <CircuitName> = "fase2"
    <TotalAmps_re> = -172.06663385673619
    <TotalAmps_im> = -0
    <CircuitType> = 1
  <EndCircuit>
  <BeginCircuit>
    <CircuitName> = "fase3"
    <TotalAmps_re> = 100.74148095136059
    <TotalAmps_im> = 0
    <CircuitType> = 1
  <EndCircuit>
  <BeginCircuit>
    <CircuitName> = "fase1n"
    <TotalAmps_re> = -71.325152905375617
    <TotalAmps_im> = -0
    <CircuitType> = 1
  <EndCircuit>
  <BeginCircuit>
    <CircuitName> = "fase2n"
    <TotalAmps_re> = 172.06663385673619
    <TotalAmps_im> = 0
    <CircuitType> = 1
  <EndCircuit>
  <BeginCircuit>
    <CircuitName> = "fase3n"
    <TotalAmps_re> = -100.74148095136059
    <TotalAmps_im> = -0
    <CircuitType> = 1
  <EndCircuit>
[NumPoints] = 177
318.97809392138436	233.00967497995114	0	2
345.48879198808413	219.96339630010544	0	2
383.01569563274603	241.62956422120413	0	2
386.50886374831481	248.72785849197786	0	2
367.25774067617044	393.10182231207079	0	2
335.74615445096731	446.94017471176966	0	2
293.73121868934686	422.34883392983858	0	2
386.37669152027166	249.71908525822971	0	2
318.46198283773333	240.66319747443521	0	2
367.29102179084549	392.8522303049981	0	2
299.37631310830727	383.79634252120371	0	2
363.2382850926374	189.22037243442571	0	2
361.28134482088524	159.73829509668187	0	2
400.7651887372993	210.8865403555244	0	2
408.65907595711127	210.3625655479099	0	2
524.06503473429507	121.50362200600566	0	2
554.93462249773154	67.294611621586512	0	2
512.63042878664874	43.204280304617498	0	2
409.45141740357491	209.75248765762382	0	2
367.65143418771856	155.46456853982335	0	2
523.86552227292611	121.65724030031683	0	2
482.06553905706983	67.369321182516387	0	2
560	0	0	20
247.11000000000001	0	0	2
280.00000000000006	484.97422611928562	0	20
123.55500000000004	214.00353752917263	0	2
0	0	0	2
800	0	0	1
561	0	0	20
400.00000000000011	692.8203230275509	0	1
280.50000000000006	485.84025152307004	0	20
566.55643407740718	41.988337338537917	0	1
567.07828233474322	33.028548782269453	0	1
568.21360219929488	50.014010083706935	0	1
685.20334344119976	63.688149707559532	0	1
704.99402851250215	47.375775165035975	0	1
705.47109851169625	41.089012430069587	0	1
705.7271028954849	34.789374089230165	0	1
687.96398645362035	16.289739685280409	0	1
570.17781727276747	16.289739685280413	0	1
567.60013059207927	24.06876022600099	0	1
637.26604852264416	16.289739685280406	0	1
634.84820682973407	57.802478353012461	0	1
559.45735384081149	41.574862999618979	0	1
560.50105035548359	23.655285887082051	0	1
557.85103371027128	107.47761467088921	0	1
559.40952137982129	98.63899188447138	0	1
558.56527291735517	115.64140616454053	0	1
673.17650066403132	142.80476613159928	0	1
694.72711929978345	128.90024833257388	0	1
695.93081212862717	122.71137888463079	0	1
696.91642887527917	116.48405673955011	0	1
681.42109674038863	96.047338293662861	0	1
564.43135549848364	82.373198669810279	0	1
560.96800904937129	89.800369098053537	0	1
631.06596012892294	90.16166693911579	0	1
623.84513221132067	131.11301703080102	0	1
550.84795635551779	106.24278318525771	0	1
553.9649316946178	88.565537612422048	0	1
541.60165509666285	171.51344164093277	0	1
544.17570630625676	162.91551183503691	0	1
541.36330652893309	179.70495060796753	0	1
652.04610053882107	219.99019307298425	0	1
675.06521759171346	208.68156676771264	0	1
676.97925536961213	202.67428444917044	0	1
678.68115570343878	196.60349234898996	0	1
665.66315566065407	174.50606141928466	0	1
551.05192791397781	147.34270145222592	0	1
546.74975751585066	154.31758202914105	0	1
616.33178720794342	162.81431231848637	0	1
604.4056223760208	202.65047707551597	0	1
534.78928523130833	169.47395198609834	0	1
539.93738765049602	152.27809237430662	0	1
518.02804320678422	233.22984354132808	0	1
521.58284832955553	224.98887896696891	0	1
516.84033011973622	241.33829387536878	0	1
622.09789547840171	294.20063004268843	0	1
646.27421687921833	285.64082500218319	0	1
648.87271552872699	279.89636800100419	0	1
651.26788416729596	274.06420299453276	0	1
640.90326233502628	250.604889426547	0	1
530.22046832513831	210.31964696153025	0	1
525.13765345232673	216.74791439260974	0	1
593.26278417222602	233.26517342907869	0	1
576.79256334619106	271.44743706141242	0	1
511.49850644674672	230.41327631616076	0	1
518.60811669228929	213.9313471674424	0	1
487.44899070129435	291.79221190986527	0	1
491.93647709616857	284.01965747566908	0	1
485.32797487692761	299.70795073005985	0	1
583.73688358055222	364.43250818750533	0	1
608.74346605643666	358.73728109073164	0	1
611.99128534100339	353.33333333333337	0	1
615.04733173735099	347.81866544729849	0	1
607.47625184553624	323.31471621296487	0	1
502.21868648687052	270.45238004564516	0	1
496.42396349104268	276.24710304147283	0	1
562.17091971332547	300.56152323168885	0	1
541.37937437545202	336.57353612475754	0	1
481.29058782993837	288.23665635430973	0	1
490.26556061968665	272.69154748591728	0	1
450.27802680745828	346.40859117715911	0	1
455.63750891915527	339.20955734815647	0	1
447.25239134622899	354.02457169528685	0	1
537.48183172349309	429.73606183718158	0	1
562.98050414484851	426.982430860553	0	1
566.83372288023099	421.99207146996889	0	1
570.50931924944507	416.8694771272053	0	1
565.83416716555644	391.65226610378812	0	1
467.42525846193183	326.92770864634264	0	1
460.9969910308522	332.01052351915382	0	1
523.47665796045635	363.79329404104027	0	1
498.64495809387802	397.14805549849291	0	1
444.57403965897799	342.16213008060595	0	1
455.29300388237186	327.76406242260066	0	1
407.0178250457505	396.34038850713796	0	1
413.17682507281472	389.81222986603962	0	1
403.12848647684291	403.5536176517831	0	1
483.95826013379502	489.22817245579915	0	1
509.60419669868418	489.45337573446506	0	1
514.01070671162108	484.94409076057173	0	1
518.25614691823444	480.28284426183717	0	1
516.54014605405837	454.69339096870902	0	1
426.31070567679421	378.98190082681435	0	1
419.33582509987895	383.28407122494127	0	1
477.70327242444318	422.1053846300203	0	1
449.16722417147457	452.35182872270065	0	1
401.84539026123105	391.46044797118253	0	1
414.16339031535949	378.40413068898584	0	1
358.25340543281914	440.91236199810777	0	1
365.12863346554991	435.14336069158361	0	1
353.55296038828004	447.62529321926723	0	1
423.88998329838421	542.10431130499865	0	1
449.33636670995799	545.30530335094761	0	1
454.23657751182117	541.33807313741124	0	1
458.99444926002343	537.20120984530797	0	1
460.26080558347627	511.58556773996349	0	1
379.43103192652404	425.91101293594738	0	1
372.00386149828068	429.37435938505951	0	1
425.46976962115576	474.70922400686499	0	1
393.61527408128728	501.43831946570702	0	1
353.68247131949266	435.46493484703944	0	1
367.43292738495416	423.92693223399118	0	1
304.64422308935303	479.52175217110511	0	1
312.14270346295052	474.58992404519711	0	1
299.19623702487218	485.64360458993815	0	1
358.08932161529856	587.64941931500834	0	1
382.99203319077594	593.78291220206938	0	1
388.31967783670297	590.41138673180842	0	1
393.52563907315215	586.85485062563976	0	1
397.75722728737293	561.55942732433266	0	1
327.4202043772687	467.08040923860125	0	1
319.64118383654807	469.65809591928917	0	1
367.48251807027594	520.89343548504098	0	1
332.74035264981046	543.74371714729637	0	1
300.73660368973839	473.58050551216871	0	1
315.73356443693342	463.71684926035277	0	1
794.59068619355446	92.874331300184181	0	1
557.20671869323007	65.128124824254158	0	1
778.43589646385908	184.49269659395213	0	1
545.87817239528113	129.37550348650893	0	1
751.75409662872676	273.61611466053495	0	1
527.16756026089467	191.87330040570015	0	1
714.90611225872976	359.03934416036975	0	1
501.32791122143431	251.77634009245926	0	1
668.39024913034916	439.60718245664469	0	1
468.70866220265737	308.27453669772211	0	1
612.83555449518246	514.23008774923142	0	1
429.75093258974675	360.60384903414854	0	1
548.99331029498694	581.89891325843894	0	1
384.9815588443596	408.05661292248027	0	1
477.72687336222901	641.69855420403496	0	1
335.00596994526313	449.99111113557956	0	1
560.66666666666663	0	0	20
280.33333333333337	485.55157638847521	0	20
560.33333333333337	0	0	20
280.16666666666674	485.26290125388044	0	20
[NumSegments] = 151
2	1	11.851851851851851	0	0	2
4	9	11.851851851851851	0	0	2
0	6	11.851851851851851	0	0	2
7	3	11.851851851851851	0	0	2
7	8	11.851851851851851	0	0	2
9	7	11.851851851851851	0	0	2
10	9	11.851851851851851	0	0	2
8	10	11.851851851851851	0	0	2
13	11	11.851851851851851	0	0	2
15	20	11.851851851851851	0	0	2
12	17	11.851851851851851	0	0	2
18	14	11.851851851851851	0	0	2
18	19	11.851851851851851	0	0	2
20	18	11.851851851851851	0	0	2
21	20	11.851851851851851	0	0	2
19	21	11.851851851851851	0	0	2
22	23	-1	4	0	2
25	24	-1	4	0	2
23	26	-1	2	0	2
26	25	-1	2	0	2
27	28	-1	10	0	1
30	29	-1	10	0	1
31	32	11.851851851851851	0	0	1
33	31	11.851851851851851	0	0	1
34	42	11.851851851851851	0	0	1
36	35	11.851851851851851	0	0	1
37	36	11.851851851851851	0	0	1
39	41	11.851851851851851	0	0	1
40	39	11.851851851851851	0	0	1
32	40	11.851851851851851	0	0	1
41	38	11.851851851851851	0	0	1
42	33	11.851851851851851	0	0	1
41	42	11.851851851851851	0	0	1
31	43	11.851851851851851	0	0	1
44	40	11.851851851851851	0	0	1
45	46	11.851851851851851	0	0	1
47	45	11.851851851851851	0	0	1
48	56	11.851851851851851	0	0	1
50	49	11.851851851851851	0	0	1
51	50	11.851851851851851	0	0	1
53	55	11.851851851851851	0	0	1
54	53	11.851851851851851	0	0	1
46	54	11.851851851851851	0	0	1
55	52	11.851851851851851	0	0	1
56	47	11.851851851851851	0	0	1
55	56	11.851851851851851	0	0	1
45	57	11.851851851851851	0	0	1
58	54	11.851851851851851	0	0	1
59	60	11.851851851851851	0	0	1
61	59	11.851851851851851	0	0	1
62	70	11.851851851851851	0	0	1
64	63	11.851851851851851	0	0	1
65	64	11.851851851851851	0	0	1
67	69	11.851851851851851	0	0	1
68	67	11.851851851851851	0	0	1
60	68	11.851851851851851	0	0	1
69	66	11.851851851851851	0	0	1
70	61	11.851851851851851	0	0	1
69	70	11.851851851851851	0	0	1
59	71	11.851851851851851	0	0	1
72	68	11.851851851851851	0	0	1
73	74	11.851851851851851	0	0	1
75	73	11.851851851851851	0	0	1
76	84	11.851851851851851	0	0	1
78	77	11.851851851851851	0	0	1
79	78	11.851851851851851	0	0	1
81	83	11.851851851851851	0	0	1
82	81	11.851851851851851	0	0	1
74	82	11.851851851851851	0	0	1
83	80	11.851851851851851	0	0	1
84	75	11.851851851851851	0	0	1
83	84	11.851851851851851	0	0	1
73	85	11.851851851851851	0	0	1
86	82	11.851851851851851	0	0	1
87	88	11.851851851851851	0	0	1
89	87	11.851851851851851	0	0	1
90	98	11.851851851851851	0	0	1
92	91	11.851851851851851	0	0	1
93	92	11.851851851851851	0	0	1
95	97	11.851851851851851	0	0	1
96	95	11.851851851851851	0	0	1
88	96	11.851851851851851	0	0	1
97	94	11.851851851851851	0	0	1
98	89	11.851851851851851	0	0	1
97	98	11.851851851851851	0	0	1
87	99	11.851851851851851	0	0	1
100	96	11.851851851851851	0	0	1
101	102	11.851851851851851	0	0	1
103	101	11.851851851851851	0	0	1
104	112	11.851851851851851	0	0	1
106	105	11.851851851851851	0	0	1
107	106	11.851851851851851	0	0	1
109	111	11.851851851851851	0	0	1
110	109	11.851851851851851	0	0	1
102	110	11.851851851851851	0	0	1
111	108	11.851851851851851	0	0	1
112	103	11.851851851851851	0	0	1
111	112	11.851851851851851	0	0	1
101	113	11.851851851851851	0	0	1
114	110	11.851851851851851	0	0	1
115	116	11.851851851851851	0	0	1
117	115	11.851851851851851	0	0	1
118	126	11.851851851851851	0	0	1
120	119	11.851851851851851	0	0	1
121	120	11.851851851851851	0	0	1
123	125	11.851851851851851	0	0	1
124	123	11.851851851851851	0	0	1
116	124	11.851851851851851	0	0	1
125	122	11.851851851851851	0	0	1
126	117	11.851851851851851	0	0	1
125	126	11.851851851851851	0	0	1
115	127	11.851851851851851	0	0	1
128	124	11.851851851851851	0	0	1
129	130	11.851851851851851	0	0	1
131	129	11.851851851851851	0	0	1
132	140	11.851851851851851	0	0	1
134	133	11.851851851851851	0	0	1
135	134	11.851851851851851	0	0	1
137	139	11.851851851851851	0	0	1
138	137	11.851851851851851	0	0	1
130	138	11.851851851851851	0	0	1
139	136	11.851851851851851	0	0	1
140	131	11.851851851851851	0	0	1
139	140	11.851851851851851	0	0	1
129	141	11.851851851851851	0	0	1
142	138	11.851851851851851	0	0	1
143	144	11.851851851851851	0	0	1
145	143	11.851851851851851	0	0	1
146	154	11.851851851851851	0	0	1
148	147	11.851851851851851	0	0	1
149	148	11.851851851851851	0	0	1
151	153	11.851851851851851	0	0	1
152	151	11.851851851851851	0	0	1
144	152	11.851851851851851	0	0	1
153	150	11.851851851851851	0	0	1
154	145	11.851851851851851	0	0	1
153	154	11.851851851851851	0	0	1
143	155	11.851851851851851	0	0	1
156	152	11.851851851851851	0	0	1
157	158	11.851851851851851	0	0	1
159	160	11.851851851851851	0	0	1
161	162	11.851851851851851	0	0	1
163	164	11.851851851851851	0	0	1
165	166	11.851851851851851	0	0	1
167	168	11.851851851851851	0	0	1
169	170	11.851851851851851	0	0	1
171	172	11.851851851851851	0	0	1
173	28	1.1851851851851851	7	0	20
174	30	1.1851851851851851	7	0	20
175	22	1.1851851851851851	5	0	20
176	24	1.1851851851851851	5	0	20
[NumArcSegments] = 66
0	1	112.40486484740391	9.5492965855137051	0	0	2	9.5492965855137051
2	3	67.595135152596157	10	0	0	2	10
4	5	45.490604609049001	2.104355932050789	0	0	2	2.104355932050789
5	6	134.5093953909512	6.4320024801751332	0	0	2	6.4320024801751332
11	12	112.40486484740381	9.5492965855137122	0	0	2	9.5492965855137122
14	13	67.595135152596228	10	0	0	2	10
16	15	45.490604609048958	2.1043559320508005	0	0	2	2.1043559320508005
17	16	134.50939539095111	6.4320024801755142	0	0	2	6.4320024801755142
22	24	59.999999999999993	0.30315227255599114	0	0	2	0.30315227255599114
23	25	59.999999999999993	0.6870028433950669	0	0	2	0.6870028433950669
27	157	6.6666666666666661	10	1	0	1	0.56000000000000005
28	44	2.4166666666666679	0.30261189417353834	0	0	1	0.30261189417353834
35	34	92.327102523523266	9.5492965855145862	0	0	1	9.5492965855145862
38	37	92.327102523523322	9.549296585514595	0	0	1	9.549296585514595
43	158	2.4166666666666656	0.30261189417353834	0	0	1	0.30261189417353834
44	43	1.8333333333333333	0.30261189417353834	0	0	1	0.30261189417353834
49	48	92.327102523523124	9.5492965855145702	0	0	1	9.5492965855145702
52	51	92.327102523523024	9.5492965855145862	0	0	1	9.5492965855145862
57	160	2.4166666666666674	0.30261189417353834	0	0	1	0.30261189417353834
58	57	1.8333333333333319	0.30261189417353834	0	0	1	0.30261189417353834
63	62	92.327102523523195	9.5492965855145506	0	0	1	9.5492965855145506
66	65	92.327102523523294	9.5492965855146004	0	0	1	9.5492965855146004
71	162	2.4166666666666607	0.30261189417353834	0	0	1	0.30261189417353834
72	71	1.8333333333333344	0.30261189417353834	0	0	1	0.30261189417353834
77	76	92.32710252352318	9.5492965855145417	0	0	1	9.5492965855145417
80	79	92.327102523523024	9.5492965855145862	0	0	1	9.5492965855145862
85	164	2.4166666666666643	0.30261189417353834	0	0	1	0.30261189417353834
86	85	1.8333333333333319	0.30261189417353834	0	0	1	0.30261189417353834
91	90	92.327102523523266	9.5492965855146075	0	0	1	9.5492965855146075
94	93	92.327102523523138	9.5492965855145879	0	0	1	9.5492965855145879
99	166	2.4166666666666643	0.30261189417353834	0	0	1	0.30261189417353834
100	99	1.8333333333333377	0.30261189417353834	0	0	1	0.30261189417353834
105	104	92.327102523523081	9.5492965855146394	0	0	1	9.5492965855146394
108	107	92.327102523523351	9.5492965855145968	0	0	1	9.5492965855145968
113	168	2.4166666666666643	0.30261189417353834	0	0	1	0.30261189417353834
114	113	1.8333333333333319	0.30261189417353834	0	0	1	0.30261189417353834
119	118	92.327102523523081	9.549296585514595	0	0	1	9.549296585514595
122	121	92.327102523523166	9.5492965855146021	0	0	1	9.5492965855146021
127	170	2.4166666666666576	0.30261189417353834	0	0	1	0.30261189417353834
128	127	1.8333333333333353	0.30261189417353834	0	0	1	0.30261189417353834
133	132	92.327102523523365	9.5492965855145684	0	0	1	9.5492965855145684