[Format]      =  4.0
[Frequency]   =  0
[Precision]   =  1e-008
[MinAngle]    =  15
[DoSmartMesh] =  1
[Depth]       =  300
[LengthUnits] =  millimeters
[ProblemType] =  planar
[Coordinates] =  cartesian
[ACSolver]    =  0
[PrevType]    =  0
[PrevSoln]    =  ""
[Comment]     =  "Add comments here."
[PointProps]   = 0
[BdryProps]   = 11
  <BeginBdry>
    <BdryName> = "A=0"
    <BdryType> = 0
    <A_0> = 0
    <A_1> = 0
    <A_2> = 0
    <Phi> = 0
    <c0> = 0
    <c0i> = 0
    <c1> = 0
    <c1i> = 0
    <Mu_ssd> = 0
    <Sigma_ssd> = 0
    <innerangle> = 0
    <outerangle> = 0
  <EndBdry>
  <BeginBdry>
    <BdryName> = "APr1"
    <BdryType> = 5
    <A_0> = 0
    <A_1> = 0
    <A_2> = 0
    <Phi> = 0
    <c0> = 0
    <c0i> = 0
    <c1> = 0
    <c1i> = 0
    <Mu_ssd> = 0
    <Sigma_ssd> = 0
    <innerangle> = 0
    <outerangle> = 0
  <EndBdry>
  <BeginBdry>
    <BdryName> = "APr2"
    <BdryType> = 5
    <A_0> = 0
    <A_1> = 0
    <A_2> = 0
    <Phi> = 0
    <c0> = 0
    <c0i> = 0
    <c1> = 0
    <c1i> = 0
    <Mu_ssd> = 0
    <Sigma_ssd> = 0
    <innerangle> = 0
    <outerangle> = 0
  <EndBdry>
  <BeginBdry>
    <BdryName> = "APr3"
    <BdryType> = 5
    <A_0> = 0
    <A_1> = 0
    <A_2> = 0
    <Phi> = 0
    <c0> = 0
    <c0i> = 0
    <c1> = 0
    <c1i> = 0
    <Mu_ssd> = 0
    <Sigma_ssd> = 0
    <innerangle> = 0
    <outerangle> = 0
  <EndBdry>
  <BeginBdry>
    <BdryName> = "APg1"
    <BdryType> = 5
    <A_0> = 0
    <A_1> = 0
    <A_2> = 0
    <Phi> = 0
    <c0> = 0
    <c0i> = 0
    <c1> = 0
    <c1i> = 0
    <Mu_ssd> = 0
    <Sigma_ssd> = 0
    <innerangle> = 0
    <outerangle> = 0
  <EndBdry>
  <BeginBdry>
    <BdryName> = "APg2"
    <BdryType> = 5
    <A_0> = 0
    <A_1> = 0
    <A_2> = 0
    <Phi> = 0
    <c0> = 0
    <c0i> = 0
    <c1> = 0
    <c1i> = 0
    <Mu_ssd> = 0
    <Sigma_ssd> = 0
    <innerangle> = 0
    <outerangle> = 0
  <EndBdry>
  <BeginBdry>
    <BdryName> = "APg3"
    <BdryType> = 5
    <A_0> = 0
    <A_1> = 0
    <A_2> = 0
    <Phi> = 0
    <c0> = 0
    <c0i> = 0
    <c1> = 0
    <c1i> = 0
    <Mu_ssd> = 0
    <Sigma_ssd> = 0
    <innerangle> = 0
    <outerangle> = 0
  <EndBdry>
  <BeginBdry>
    <BdryName> = "APs1"
    <BdryType> = 5
    <A_0> = 0
    <A_1> = 0
    <A_2> = 0
    <Phi> = 0
    <c0> = 0
    <c0i> = 0
    <c1> = 0
    <c1i> = 0
    <Mu_ssd> = 0
    <Sigma_ssd> = 0
    <innerangle> = 0
    <outerangle> = 0
  <EndBdry>
  <BeginBdry>
    <BdryName> = "APs2"
    <BdryType> = 5
    <A_0> = 0
    <A_1> = 0
    <A_2> = 0
    <Phi> = 0
    <c0> = 0
    <c0i> = 0
    <c1> = 0
    <c1i> = 0
    <Mu_ssd> = 0
    <Sigma_ssd> = 0
    <innerangle> = 0
    <outerangle> = 0
  <EndBdry>
  <BeginBdry>
    <BdryName> = "APs3"
    <BdryType> = 5
    <A_0> = 0
    <A_1> = 0
    <A_2> = 0
    <Phi> = 0
    <c0> = 0
    <c0i> = 0
    <c1> = 0
    <c1i> = 0
    <Mu_ssd> = 0
    <Sigma_ssd> = 0
    <innerangle> = 0
    <outerangle> = 0
  <EndBdry>
  <BeginBdry>
    <BdryName> = "AGap"
    <BdryType> = 7
    <A_0> = 0
    <A_1> = 0
    <A_2> = 0
    <Phi> = 0
    <c0> = 0
    <c0i> = 0
    <c1> = 0
    <c1i> = 0
    <Mu_ssd> = 0
    <Sigma_ssd> = 0
    <innerangle> = 1.8666666666666667
    <outerangle> = 0
  <EndBdry>
[BlockProps]  = 9
  <BeginBlock>
    <BlockName> = "M270-35A"
    <Mu_x> = 1
    <Mu_y> = 1
    <H_c> = 0
    <H_cAngle> = 0
    <J_re> = 0
    <J_im> = 0
    <Sigma> = 0
    <d_lam> = 0
    <Phi_h> = 0
    <Phi_hx> = 0
    <Phi_hy> = 0
    <LamType> = 0
    <LamFill> = 1
    <NStrands> = 0
    <WireD> = 0
    <BHPoints> = 200
      0	0
      0.0045422769999999999	3.2767874890000002
      0.0090353559999999996	6.114592773
      0.013222249	8.4602422570000009
      0.017196487	10.462328400000001
      0.020991169	12.199266809999999
      0.024640190999999999	13.72982376
      0.028168996000000002	15.09561901
      0.031597466999999997	16.327217480000002
      0.034941272000000002	17.447599879999999
      0.038212956999999999	18.47443998
      0.041422729999999998	19.421601849999998
      0.044579012000000001	20.300151339999999
      0.047688851999999997	21.119056130000001
      0.050758219	21.885681389999998
      0.053792226999999998	22.60614816
      0.056795300999999999	23.285597330000002
      0.059771310000000001	23.928387470000001
      0.062723663999999998	24.538245379999999
      0.065655396000000005	25.11838217
      0.068569221	25.67158405
      0.071467592999999996	26.200284
      0.074352739000000001	26.70661905
      0.077226698999999996	27.19247648
      0.080091349000000006	27.65953137
      0.082948429000000004	28.109277410000001
      0.085799557999999998	28.54305239
      0.088646256000000007	28.96205934
      0.091489953999999998	29.36738437
      0.094332005999999996	29.760011540000001
      0.097173704999999999	30.140835630000002
      0.100016285	30.510672870000001
      0.102860934	30.870270300000001
      0.105708802	31.220313650000001
      0.108561001	31.561434299999998
      0.11141862	31.894215259999999
      0.114282722	32.21919639
      0.117154355	32.536878999999999
      0.120034552	32.847729870000002
      0.12292433699999999	33.152184810000001
      0.12582473199999999	33.45065185
      0.12873675200000001	33.743513989999997
      0.13166142	34.031131799999997
      0.13459976100000001	34.313845620000002
      0.137552811	34.591977620000002
      0.14052161499999999	34.865833639999998
      0.14350723800000001	35.135704879999999
      0.14651076099999999	35.401869419999997
      0.14953328699999999	35.664593680000003
      0.15257594699999999	35.924133650000002
      0.155639899	36.180736189999998
      0.158726334	36.434640119999997
      0.161836481	36.686077320000003
      0.16497160599999999	36.93527375
      0.16813302299999999	37.182450420000002
      0.17132209400000001	37.427824389999998
      0.17454023399999999	37.671609650000001
      0.17778891699999999	37.914018050000003
      0.18106968000000001	38.155260249999998
      0.18438413100000001	38.395546590000002
      0.18773395400000001	38.635088090000004
      0.191120915	38.87409736
      0.19454686800000001	39.112789630000002
      0.19801376800000001	39.351383830000003
      0.20152367299999999	39.590103640000002
      0.20507876	39.829178749999997
      0.208681327	40.068846100000002
      0.21233381500000001	40.309351300000003
      0.216038808	40.550950149999998
      0.21979905799999999	40.793910310000001
      0.22361749	41.038513199999997
      0.227497227	41.285056060000002
      0.2314416	41.53385428
      0.23545417299999999	41.785244059999997
      0.23953876299999999	42.039585369999998
      0.24369946200000001	42.297265359999997
      0.247940667	42.558702250000003
      0.25226710400000002	42.824349750000003
      0.25668386300000001	43.0947022
      0.26119642799999998	43.370300520000001
      0.26581071499999998	43.651739030000002
      0.27054201700000002	43.94020278
      0.275438138	44.23873004
      0.28051031599999998	44.548036490000001
      0.28576849199999999	44.868763260000001
      0.29122336399999998	45.201605100000002
      0.296886504	45.547319020000003
      0.30277045699999999	45.906731970000003
      0.30888884599999999	46.280749559999997
      0.31525650100000002	46.670366299999998
      0.321889598	47.076677459999999
      0.328805825	47.50089294
      0.33602457000000002	47.944353649999996
      0.34356714500000002	48.408550759999997
      0.351457032	48.895148689999999
      0.35972019	49.406012390000001
      0.36838539799999998	49.943240269999997
      0.37748466600000002	50.509203810000002
      0.38705371900000002	51.106595769999998
      0.39713256899999999	51.738489119999997
      0.40776619800000002	52.408409570000003
      0.41900536300000002	53.120425429999997
      0.43090757000000002	53.879259759999997
      0.44353822799999998	54.690431349999997
      0.45697202599999998	55.560433060000001
      0.47129457299999999	56.49695913
      0.486604327	57.509196449999997
      0.503014823	58.60819978
      0.520657166	59.807376320000003
      0.53968265500000001	61.123111049999999
      0.56026517099999995	62.575567960000001
      0.58260257699999995	64.189698669999999
      0.60691558199999995	65.996464399999994
      0.63344113800000001	68.034201780000004
      0.662415215	70.349880479999996
      0.69403682899999997	72.999622560000006
      0.72840307800000004	76.047204840000006
      0.76540934699999996	79.558509650000005
      0.80463064699999998	83.589963030000007
      0.84524547999999999	88.171938179999998
      0.88609953900000005	93.294734669999997
      0.92594964300000004	98.90894376
      0.963771241	104.9435902
      0.99893980100000002	111.3300564
      1.0312218310000001	118.0174305
      1.0606584889999999	124.9760964
      1.0874410889999999	132.19454709999999
      1.1118223309999999	139.6744898
      1.1340651580000001	147.42664859999999
      1.1544176930000001	155.46782519999999
      1.173103241	163.8190534
      1.1903180360000001	172.50453999999999
      1.2062325739999999	181.55112829999999
      1.220994358	190.98810510000001
      1.234730984	200.84723579999999
      1.2475531	211.16296399999999
      1.2595570490000001	221.97273730000001
      1.270827143	233.31744900000001
      1.281437594	245.2419931
      1.291454146	257.79594609999998
      1.3009354369999999	271.03439809999998
      1.309934159	285.01896390000002
      1.318498043	299.81902289999999
      1.326670706	315.51324579999999
      1.3344924010000001	332.19149570000002
      1.3420006879999999	349.95721329999998
      1.3492310569999999	368.93044570000001
      1.356217531	389.25173360000002
      1.362993272	411.08716509999999
      1.3695912379999999	434.63503709999998
      1.3760449050000001	460.1347695
      1.382389146	487.87903890000001
      1.3886613240000001	518.23060969999995
      1.394902732	551.64618570000005
      1.401160583	588.71104339999999
      1.4074908660000001	630.19074279999995
      1.4139626249999999	677.11087850000001
      1.420664664	730.8848299
      1.4277165590000001	793.52783980000004
      1.435287779	868.03580320000003
      1.4436331710000001	959.10175079999999
      1.453164339	1074.5891859999999
      1.464608755	1228.9034079999999
      1.479413587	1451.8548430000001
      1.5007295060000001	1812.597843
      1.531321148	2396.2922779999999
      1.5749716949999999	3340.7297119999998
      1.6351726849999999	4868.8615820000005
      1.6746062129999999	6056.7860730000002
      1.7053540309999999	7126.7301200000002
      1.7307497590000001	8135.9466300000004
      1.752580204	9119.3875740000003
      1.771845345	10098.25848
      1.789165838	11087.22133
      1.804957089	12097.58993
      1.819514077	13138.977849999999
      1.8330565510000001	14220.25051
      1.845754994	15350.15127
      1.8577465099999999	16537.778849999999
      1.869145125	17793.012470000001
      1.8800488470000001	19126.948680000001
      1.8905448170000001	20552.403480000001
      1.9007133519999999	22084.53774
      1.9106314310000001	23741.68173
      1.920376064	25546.46932
      1.930027954	27527.455720000002
      1.9396760099999999	29721.505959999999
      1.9494234969999999	32177.45292
      1.959397184	34961.935420000002
      1.969762051	38169.180130000001
      1.980746793	41938.394229999998
      1.9926918389999999	46487.096960000003
      2.0061495709999999	52181.595710000001
      2.022124024	59707.652569999998
      2.042772002	70576.241299999994
      2.0725625070000002	88161.987269999998
      2.1158769670000002	116616.322
      2.1803765140000002	162656.4026
      2.2792825830000001	237150.818
      2.3747656959999999	310949.48619999998
  <EndBlock>
  <BeginBlock>
    <BlockName> = "ShaftAir"
    <Mu_x> = 1
    <Mu_y> = 1
    <H_c> = 0
    <H_cAngle> = 0
    <J_re> = 0
    <J_im> = 0
    <Sigma> = 0
    <d_lam> = 0
    <Phi_h> = 0
    <Phi_hx> = 0
    <Phi_hy> = 0
    <LamType> = 0
    <LamFill> = 1
    <NStrands> = 0
    <WireD> = 0
    <BHPoints> = 3
      -100	-7.9577471545947675e-011
      0	0
      100	7.9577471545947675e-011
  <EndBlock>
  <BeginBlock>
    <BlockName> = "Copper"
    <Mu_x> = 1
    <Mu_y> = 1
    <H_c> = 0
    <H_cAngle> = 0
    <J_re> = 0
    <J_im> = 0
    <Sigma> = 58
    <d_lam> = 0
    <Phi_h> = 0
    <Phi_hx> = 0
    <Phi_hy> = 0
    <LamType> = 0
    <LamFill> = 1
    <NStrands> = 0
    <WireD> = 0
    <BHPoints> = 0
  <EndBlock>
  <BeginBlock>
    <BlockName> = "Aluminium"
    <Mu_x> = 1
    <Mu_y> = 1
    <H_c> = 0
    <H_cAngle> = 0
    <J_re> = 0
    <J_im> = 0
    <Sigma> = 29
    <d_lam> = 0
    <Phi_h> = 0
    <Phi_hx> = 0
    <Phi_hy> = 0
    <LamType> = 0
    <LamFill> = 1
    <NStrands> = 0
    <WireD> = 0
    <BHPoints> = 0
  <EndBlock>
  <BeginBlock>
    <BlockName> = "BMH-38EH"
    <Mu_x> = 1.05
    <Mu_y> = 1.05
    <H_c> = 954929.65855137201
    <H_cAngle> = 0
    <J_re> = 0
    <J_im> = 0
    <Sigma> = 0.66666666666666663
    <d_lam> = 0
    <Phi_h> = 0
    <Phi_hx> = 0
    <Phi_hy> = 0
    <LamType> = 0
    <LamFill> = 1
    <NStrands> = 0
    <WireD> = 0
    <BHPoints> = 0
  <EndBlock>
  <BeginBlock>
    <BlockName> = "DW235"
    <Mu_x> = 1
    <Mu_y> = 1
    <H_c> = 0
    <H_cAngle> = 0
    <J_re> = 0
    <J_im> = 0
    <Sigma> = 0
    <d_lam> = 0
    <Phi_h> = 0
    <Phi_hx> = 0
    <Phi_hy> = 0
    <LamType> = 0
    <LamFill> = 1
    <NStrands> = 0
    <WireD> = 0
    <BHPoints> = 0
  <EndBlock>
  <BeginBlock>
    <BlockName> = "Air"
    <Mu_x> = 1
    <Mu_y> = 1
    <H_c> = 0
    <H_cAngle> = 0
    <J_re> = 0
    <J_im> = 0
    <Sigma> = 0
    <d_lam> = 0
    <Phi_h> = 0
    <Phi_hx> = 0
    <Phi_hy> = 0
    <LamType> = 0
    <LamFill> = 1
    <NStrands> = 0
    <WireD> = 0
    <BHPoints> = 0
  <EndBlock>
  <BeginBlock>
    <BlockName> = "BMH-38EH_1"
    <Mu_x> = 1.05
    <Mu_y> = 1.05
    <H_c> = 954929.65855137201
    <H_cAngle> = 0
    <J_re> = 0
    <J_im> = 0
    <Sigma> = 0.66666666666666663
    <d_lam> = 0
    <Phi_h> = 0
    <Phi_hx> = 0
    <Phi_hy> = 0
    <LamType> = 0
    <LamFill> = 1
    <NStrands> = 0
    <WireD> = 0
    <BHPoints> = 0
  <EndBlock>
  <BeginBlock>
    <BlockName> = "BMH-38EH_2"
    <Mu_x> = 1.05
    <Mu_y> = 1.05
    <H_c> = 954929.65855137201
    <H_cAngle> = 0
    <J_re> = 0
    <J_im> = 0
    <Sigma> = 0.66666666666666663
    <d_lam> = 0
    <Phi_h> = 0
    <Phi_hx> = 0
    <Phi_hy> = 0
    <LamType> = 0
    <LamFill> = 1
    <NStrands> = 0
    <WireD> = 0
    <BHPoints> = 0
  <EndBlock>
[CircuitProps]  = 6
  <BeginCircuit>
    <CircuitName> = "fase1"
    <TotalAmps_re> = -215.66001819420853
    <TotalAmps_im> = -0
    <CircuitType> = 1
  <EndCircuit>
  <BeginCircuit>
    <CircuitName> = "fase2"
    <TotalAmps_re> = 364.89280602593141
    <TotalAmps_im> = 0
    <CircuitType> = 1
  <EndCircuit>
  <BeginCircuit>
    <CircuitName> = "fase3"
    <TotalAmps_re> = -149.23278783172299
    <TotalAmps_im> = -0
    <CircuitType> = 1
  <EndCircuit>
  <BeginCircuit>
    <CircuitName> = "fase1n"
    <TotalAmps_re> = 215.66001819420853
    <TotalAmps_im> = 0
    <CircuitType> = 1
  <EndCircuit>
  <BeginCircuit>
    <CircuitName> = "fase2n"
    <TotalAmps_re> = -364.89280602593141
    <TotalAmps_im> = -0
    <CircuitType> = 1
  <EndCircuit>
  <BeginCircuit>
    <CircuitName> = "fase3n"
    <TotalAmps_re> = 149.23278783172299
    <TotalAmps_im> = 0
    <CircuitType> = 1
  <EndCircuit>
[NumPoints] = 67
449.3832906395582	23.551180309324721	0	2
447.02652493753743	23.427667452591376	0	2
447.53485291572298	47.037808470444055	0	20
445.18778124265384	46.791121297132392	0	2
446.13117468097585	44.529811158061065	0	2
445.42667533744333	44.459492775242566	0	2
449.99999999999994	0	0	20
447.63999999999999	0	0	2
448.34185415654929	2.3475339118893039	0	2
447.63386386163808	2.3438268494966614	0	2
426.24000000000001	0	0	2
423.9050126817728	44.554212183204612	0	2
0	0	0	2
500	0	0	1
452	0	0	20
497.26094768413662	52.264231633826725	0	1
449.52389670645954	47.246865396979359	0	20
456.33185837757458	10.135068613495012	0	1
456.36972025517798	7.9659630983266272	0	1
456.70361895833639	11.626118862654666	0	1
490.22853136900557	12.211298385495704	0	1
491.62675159120329	10.866063190385823	0	1
491.67510409315543	8.5822208655341665	0	1
491.70648599392621	6.2980823177370207	0	1
490.35606556096508	4.9048694215270014	0	1
456.8311531502959	4.3196898986859633	0	1
456.40758213278139	5.7968575831582427	0	1
474.07939320342115	4.6207590487107488	0	1
473.95185901146164	11.927188012679451	0	1
451.88809084354619	10.057502362662641	0	1
451.963814598753	5.7192913323258718	0	1
455.70016454546885	26.054646790230365	0	1
455.81370404941345	23.888183996007122	0	1
456.01966175647567	27.557762989027474	0	1
489.50372922548934	29.312588606442002	0	1
490.94804572096217	28.016970074299905	0	1
491.07607371556179	25.73620648246763	0	1
491.1871517850434	23.454554582700908	0	1
489.88617642060001	22.015061400696794	0	1
456.4021089515864	20.260235783282265	0	1
455.92724355335793	21.721721201783875	0	1
473.62933468109463	21.163076426973461	0	1
473.2468874859839	28.460603632718673	0	1
451.2618110576708	25.822042540261727	0	1
451.48889006555987	21.489116951815241	0	1
454.5132702580936	41.94248139326249	0	1
454.70234905798321	39.781300821181141	0	1
454.78011484120861	43.455832226146129	0	1
488.18254219018098	46.378165953429487	0	1
489.67119528175908	45.133742595861854	0	1
489.87874278661587	42.858836496160905	0	1
490.06938169329101	40.582451085802958	0	1
488.81943643544707	39.098431418710085	0	1
455.41700908647476	36.176097691426719	0	1
454.89142785787277	37.620120249099791	0	1
472.60223177146526	37.679609856531926	0	1
471.96533752619911	44.959344391251335	0	1
450.08573826657477	41.555122536606234	0	1
450.46389586635394	37.232761392443535	0	1
499.6954135095479	17.449748351250484	0	1
451.72465381263129	15.774572509530438	0	1
498.78202512991209	34.878236872062658	0	1
450.89895071744053	31.529926132344642	0	1
451.33333333333331	0	0	20
448.86088210954733	47.177179754800925	0	20
450.66666666666669	0	0	20
448.19786751263518	47.10749411262249	0	20
[NumSegments] = 56
0	1	0.7407407407407407	0	0	2
3	2	-1	4	0	2
5	4	0.7407407407407407	0	0	2
7	6	-1	4	0	2
9	8	0.7407407407407407	0	0	2
7	10	-1	3	0	2
11	3	-1	3	0	2
10	12	-1	2	0	2
12	11	-1	2	0	2
13	14	-1	10	0	1
16	15	-1	10	0	1
17	18	0.7407407407407407	0	0	1
19	17	0.7407407407407407	0	0	1
20	28	0.7407407407407407	0	0	1
22	21	0.7407407407407407	0	0	1
23	22	0.7407407407407407	0	0	1
25	27	0.7407407407407407	0	0	1
26	25	0.7407407407407407	0	0	1
18	26	0.7407407407407407	0	0	1
27	24	0.7407407407407407	0	0	1
28	19	0.7407407407407407	0	0	1
27	28	0.7407407407407407	0	0	1
17	29	0.7407407407407407	0	0	1
30	26	0.7407407407407407	0	0	1
31	32	0.7407407407407407	0	0	1
33	31	0.7407407407407407	0	0	1
34	42	0.7407407407407407	0	0	1
36	35	0.7407407407407407	0	0	1
37	36	0.7407407407407407	0	0	1
39	41	0.7407407407407407	0	0	1
40	39	0.7407407407407407	0	0	1
32	40	0.7407407407407407	0	0	1
41	38	0.7407407407407407	0	0	1
42	33	0.7407407407407407	0	0	1
41	42	0.7407407407407407	0	0	1
31	43	0.7407407407407407	0	0	1
44	40	0.7407407407407407	0	0	1
45	46	0.7407407407407407	0	0	1
47	45	0.7407407407407407	0	0	1
48	56	0.7407407407407407	0	0	1
50	49	0.7407407407407407	0	0	1
51	50	0.7407407407407407	0	0	1
53	55	0.7407407407407407	0	0	1
54	53	0.7407407407407407	0	0	1
46	54	0.7407407407407407	0	0	1
55	52	0.7407407407407407	0	0	1
56	47	0.7407407407407407	0	0	1
55	56	0.7407407407407407	0	0	1
45	57	0.7407407407407407	0	0	1
58	54	0.7407407407407407	0	0	1
59	60	0.7407407407407407	0	0	1
61	62	0.7407407407407407	0	0	1
63	14	0.07407407407407407	7	0	20
64	16	0.07407407407407407	7	0	20
65	6	0.07407407407407407	5	0	20
66	2	0.07407407407407407	5	0	20
[NumArcSegments] = 29
0	2	2.9999999999999996	0.023578510087688204	0	0	2	0.023578510087688204
1	5	2.7000000000000002	0.023702818200919688	0	0	2	0.023702818200919688
0	4	11.623749923849545	0.10122172010773545	0	0	2	0.10122172010773545
5	3	0.29999999999999932	0.023702818200919691	0	0	2	0.023702818200919691
6	0	3.0000000000000004	0.023578510087688197	0	0	2	0.023578510087688197
7	9	0.30000000000000016	0.023702818200919684	0	0	2	0.023702818200919684
8	0	11.623749923849539	0.10122172010773546	0	0	2	0.10122172010773546
9	1	2.7000000000000006	0.023702818200919688	0	0	2	0.023702818200919688
10	11	6	0.024892852710819462	0	0	2	0.024892852710819462
13	59	1.9999999999999991	0.7407407407407407	1	0	1	0.11
14	30	0.72499999999999987	0.023474180397034711	0	0	1	0.023474180397034711
21	20	89.787140232028406	7.7191904327976859	0	0	1	7.7191904327976859
24	23	89.787140232028904	7.7191904327976513	0	0	1	7.7191904327976513
29	60	0.72499999999999976	0.023474180397034711	0	0	1	0.023474180397034711
30	29	0.54999999999999982	0.023474180397034711	0	0	1	0.023474180397034711
35	34	89.787140232027667	7.7191904327975562	0	0	1	7.7191904327975562
38	37	89.787140232029529	7.7191904327976557	0	0	1	7.7191904327976557
43	62	0.72500000000000098	0.023474180397034711	0	0	1	0.023474180397034711
44	43	0.5499999999999996	0.023474180397034711	0	0	1	0.023474180397034711
49	48	89.787140232027127	7.7191904327975127	0	0	1	7.7191904327975127
52	51	89.787140232030708	7.7191904327977037	0	0	1	7.7191904327977037
57	16	0.72499999999999942	0.023474180397034711	0	0	1	0.023474180397034711
58	57	0.54999999999999982	0.023474180397034711	0	0	1	0.023474180397034711
59	61	2.0000000000000018	0.7407407407407407	1	0	1	0.14000000000000001
60	44	0.72500000000000009	0.023474180397034711	0	0	1	0.023474180397034711
61	15	1.999999999999998	0.7407407407407407	1	0	1	0.10000000000000001
62	58	0.72499999999999998	0.023474180397034711	0	0	1	0.023474180397034711
63	64	6	0.07407407407407407	11	0	20	0.012999999999999999
65	66	6	0.07407407407407407	11	0	20	0.012999999999999999
[NumHoles] = 0
[NumBlockLabels] = 20
447.32125421421944	34.02684829725483	8	0.7407407407407407	0	-177.00000000000006	201	1	0
448.42755574199231	12.917357627977136	9	0.7407407407407407	0	-177.00000000000006	202	1	0
446.07012104419897	45.704558425220014	7	0.7407407407407407	0	0	2	1	0
448.40392950454685	1.1728401903464878	7	0.7407407407407407	0	0	2	1	0
436.34118891566351	22.867672720791877	1	0.7407407407407407	0	0	22	1	0
212.82792644689479	11.153838994496189	7	0.7407407407407407	0	0	2	1	0
465.19267318130966	8.1199683145108636	3	0.7407407407407407	1	0	1	1	0
482.83857903357313	8.4279787468793366	3	0.7407407407407407	1	0	1	1	0
454.15043923293348	7.9272254039893877	7	0.7407407407407407	0	0	10	1	0
495.79947583567554	8.6542120420879609	1	0.7407407407407407	0	0	12	1	0
464.62590756647631	24.350012012926591	3	0.7407407407407407	3	0	1	-1	0
482.25031460060222	25.273668046765543	3	0.7407407407407407	3	0	1	-1	0
453.59712687924048	23.772018108908867	7	0.7407407407407407	0	0	10	1	0
495.19542054642437	25.95209230196977	1	0.7407407407407407	0	0	12	1	0
463.49306685340764	40.550388972536382	3	0.7407407407407407	2	0	1	1	0
481.07450244425667	42.088565275246886	3	0.7407407407407407	2	0	1	1	0
452.49117629772616	39.58784827156132	7	0.7407407407407407	0	0	10	1	0
493.98804591624435	43.218353934995001	1	0.7407407407407407	0	0	12	1	0
451.04767319748254	23.638406903062965	7	0.07407407407407407	0	0	20	1	0
449.71616715114305	23.568625628072368	7	0.07407407407407407	0	0	20	1	0
