[Format]      =  4.0
[Frequency]   =  0
[Precision]   =  1e-008
[MinAngle]    =  15
[DoSmartMesh] =  1
[Depth]       =  134
[LengthUnits] =  millimeters
[ProblemType] =  planar
[Coordinates] =  cartesian
[ACSolver]    =  0
[PrevType]    =  0
[PrevSoln]    =  ""
[Comment]     =  "Add comments here."
[PointProps]   = 0
[BdryProps]   = 11
  <BeginBdry>
    <BdryName> = "A=0"
    <BdryType> = 0
    <A_0> = 0
    <A_1> = 0
    <A_2> = 0
    <Phi> = 0
    <c0> = 0
    <c0i> = 0
    <c1> = 0
    <c1i> = 0
    <Mu_ssd> = 0
    <Sigma_ssd> = 0
    <innerangle> = 0
    <outerangle> = 0
  <EndBdry>
  <BeginBdry>
    <BdryName> = "APr1"
    <BdryType> = 5
    <A_0> = 0
    <A_1> = 0
    <A_2> = 0
    <Phi> = 0
    <c0> = 0
    <c0i> = 0
    <c1> = 0
    <c1i> = 0
    <Mu_ssd> = 0
    <Sigma_ssd> = 0
    <innerangle> = 0
    <outerangle> = 0
  <EndBdry>
  <BeginBdry>
    <BdryName> = "APr2"
    <BdryType> = 5
    <A_0> = 0
    <A_1> = 0
    <A_2> = 0
    <Phi> = 0
    <c0> = 0
    <c0i> = 0
    <c1> = 0
    <c1i> = 0
    <Mu_ssd> = 0
    <Sigma_ssd> = 0
    <innerangle> = 0
    <outerangle> = 0
  <EndBdry>
  <BeginBdry>
    <BdryName> = "APr3"
    <BdryType> = 5
    <A_0> = 0
    <A_1> = 0
    <A_2> = 0
    <Phi> = 0
    <c0> = 0
    <c0i> = 0
    <c1> = 0
    <c1i> = 0
    <Mu_ssd> = 0
    <Sigma_ssd> = 0
    <innerangle> = 0
    <outerangle> = 0
  <EndBdry>
  <BeginBdry>
    <BdryName> = "APg1"
    <BdryType> = 5
    <A_0> = 0
    <A_1> = 0
    <A_2> = 0
    <Phi> = 0
    <c0> = 0
    <c0i> = 0
    <c1> = 0
    <c1i> = 0
    <Mu_ssd> = 0
    <Sigma_ssd> = 0
    <innerangle> = 0
    <outerangle> = 0
  <EndBdry>
  <BeginBdry>
    <BdryName> = "APg2"
    <BdryType> = 5
    <A_0> = 0
    <A_1> = 0
    <A_2> = 0
    <Phi> = 0
    <c0> = 0
    <c0i> = 0
    <c1> = 0
    <c1i> = 0
    <Mu_ssd> = 0
    <Sigma_ssd> = 0
    <innerangle> = 0
    <outerangle> = 0
  <EndBdry>
  <BeginBdry>
    <BdryName> = "APg3"
    <BdryType> = 5
    <A_0> = 0
    <A_1> = 0
    <A_2> = 0
    <Phi> = 0
    <c0> = 0
    <c0i> = 0
    <c1> = 0
    <c1i> = 0
    <Mu_ssd> = 0
    <Sigma_ssd> = 0
    <innerangle> = 0
    <outerangle> = 0
  <EndBdry>
  <BeginBdry>
    <BdryName> = "APs1"
    <BdryType> = 5
    <A_0> = 0
    <A_1> = 0
    <A_2> = 0
    <Phi> = 0
    <c0> = 0
    <c0i> = 0
    <c1> = 0
    <c1i> = 0
    <Mu_ssd> = 0
    <Sigma_ssd> = 0
    <innerangle> = 0
    <outerangle> = 0
  <EndBdry>
  <BeginBdry>
    <BdryName> = "APs2"
    <BdryType> = 5
    <A_0> = 0
    <A_1> = 0
    <A_2> = 0
    <Phi> = 0
    <c0> = 0
    <c0i> = 0
    <c1> = 0
    <c1i> = 0
    <Mu_ssd> = 0
    <Sigma_ssd> = 0
    <innerangle> = 0
    <outerangle> = 0
  <EndBdry>
  <BeginBdry>
    <BdryName> = "APs3"
    <BdryType> = 5
    <A_0> = 0
    <A_1> = 0
    <A_2> = 0
    <Phi> = 0
    <c0> = 0
    <c0i> = 0
    <c1> = 0
    <c1i> = 0
    <Mu_ssd> = 0
    <Sigma_ssd> = 0
    <innerangle> = 0
    <outerangle> = 0
  <EndBdry>
  <BeginBdry>
    <BdryName> = "AGap"
    <BdryType> = 7
    <A_0> = 0
    <A_1> = 0
    <A_2> = 0
    <Phi> = 0
    <c0> = 0
    <c0i> = 0
    <c1> = 0
    <c1i> = 0
    <Mu_ssd> = 0
    <Sigma_ssd> = 0
    <innerangle> = 0
    <outerangle> = 0
  <EndBdry>
[BlockProps]  = 7
  <BeginBlock>
    <BlockName> = "M270-35A"
    <Mu_x> = 1
    <Mu_y> = 1
    <H_c> = 0
    <H_cAngle> = 0
    <J_re> = 0
    <J_im> = 0
    <Sigma> = 0
    <d_lam> = 0
    <Phi_h> = 0
    <Phi_hx> = 0
    <Phi_hy> = 0
    <LamType> = 0
    <LamFill> = 1
    <NStrands> = 0
    <WireD> = 0
    <BHPoints> = 200
      0	0
      0.0045422769999999999	3.2767874890000002
      0.0090353559999999996	6.114592773
      0.013222249	8.4602422570000009
      0.017196487	10.462328400000001
      0.020991169	12.199266809999999
      0.024640190999999999	13.72982376
      0.028168996000000002	15.09561901
      0.031597466999999997	16.327217480000002
      0.034941272000000002	17.447599879999999
      0.038212956999999999	18.47443998
      0.041422729999999998	19.421601849999998
      0.044579012000000001	20.300151339999999
      0.047688851999999997	21.119056130000001
      0.050758219	21.885681389999998
      0.053792226999999998	22.60614816
      0.056795300999999999	23.285597330000002
      0.059771310000000001	23.928387470000001
      0.062723663999999998	24.538245379999999
      0.065655396000000005	25.11838217
      0.068569221	25.67158405
      0.071467592999999996	26.200284
      0.074352739000000001	26.70661905
      0.077226698999999996	27.19247648
      0.080091349000000006	27.65953137
      0.082948429000000004	28.109277410000001
      0.085799557999999998	28.54305239
      0.088646256000000007	28.96205934
      0.091489953999999998	29.36738437
      0.094332005999999996	29.760011540000001
      0.097173704999999999	30.140835630000002
      0.100016285	30.510672870000001
      0.102860934	30.870270300000001
      0.105708802	31.220313650000001
      0.108561001	31.561434299999998
      0.11141862	31.894215259999999
      0.114282722	32.21919639
      0.117154355	32.536878999999999
      0.120034552	32.847729870000002
      0.12292433699999999	33.152184810000001
      0.12582473199999999	33.45065185
      0.12873675200000001	33.743513989999997
      0.13166142	34.031131799999997
      0.13459976100000001	34.313845620000002
      0.137552811	34.591977620000002
      0.14052161499999999	34.865833639999998
      0.14350723800000001	35.135704879999999
      0.14651076099999999	35.401869419999997
      0.14953328699999999	35.664593680000003
      0.15257594699999999	35.924133650000002
      0.155639899	36.180736189999998
      0.158726334	36.434640119999997
      0.161836481	36.686077320000003
      0.16497160599999999	36.93527375
      0.16813302299999999	37.182450420000002
      0.17132209400000001	37.427824389999998
      0.17454023399999999	37.671609650000001
      0.17778891699999999	37.914018050000003
      0.18106968000000001	38.155260249999998
      0.18438413100000001	38.395546590000002
      0.18773395400000001	38.635088090000004
      0.191120915	38.87409736
      0.19454686800000001	39.112789630000002
      0.19801376800000001	39.351383830000003
      0.20152367299999999	39.590103640000002
      0.20507876	39.829178749999997
      0.208681327	40.068846100000002
      0.21233381500000001	40.309351300000003
      0.216038808	40.550950149999998
      0.21979905799999999	40.793910310000001
      0.22361749	41.038513199999997
      0.227497227	41.285056060000002
      0.2314416	41.53385428
      0.23545417299999999	41.785244059999997
      0.23953876299999999	42.039585369999998
      0.24369946200000001	42.297265359999997
      0.247940667	42.558702250000003
      0.25226710400000002	42.824349750000003
      0.25668386300000001	43.0947022
      0.26119642799999998	43.370300520000001
      0.26581071499999998	43.651739030000002
      0.27054201700000002	43.94020278
      0.275438138	44.23873004
      0.28051031599999998	44.548036490000001
      0.28576849199999999	44.868763260000001
      0.29122336399999998	45.201605100000002
      0.296886504	45.547319020000003
      0.30277045699999999	45.906731970000003
      0.30888884599999999	46.280749559999997
      0.31525650100000002	46.670366299999998
      0.321889598	47.076677459999999
      0.328805825	47.50089294
      0.33602457000000002	47.944353649999996
      0.34356714500000002	48.408550759999997
      0.351457032	48.895148689999999
      0.35972019	49.406012390000001
      0.36838539799999998	49.943240269999997
      0.37748466600000002	50.509203810000002
      0.38705371900000002	51.106595769999998
      0.39713256899999999	51.738489119999997
      0.40776619800000002	52.408409570000003
      0.41900536300000002	53.120425429999997
      0.43090757000000002	53.879259759999997
      0.44353822799999998	54.690431349999997
      0.45697202599999998	55.560433060000001
      0.47129457299999999	56.49695913
      0.486604327	57.509196449999997
      0.503014823	58.60819978
      0.520657166	59.807376320000003
      0.53968265500000001	61.123111049999999
      0.56026517099999995	62.575567960000001
      0.58260257699999995	64.189698669999999
      0.60691558199999995	65.996464399999994
      0.63344113800000001	68.034201780000004
      0.662415215	70.349880479999996
      0.69403682899999997	72.999622560000006
      0.72840307800000004	76.047204840000006
      0.76540934699999996	79.558509650000005
      0.80463064699999998	83.589963030000007
      0.84524547999999999	88.171938179999998
      0.88609953900000005	93.294734669999997
      0.92594964300000004	98.90894376
      0.963771241	104.9435902
      0.99893980100000002	111.3300564
      1.0312218310000001	118.0174305
      1.0606584889999999	124.9760964
      1.0874410889999999	132.19454709999999
      1.1118223309999999	139.6744898
      1.1340651580000001	147.42664859999999
      1.1544176930000001	155.46782519999999
      1.173103241	163.8190534
      1.1903180360000001	172.50453999999999
      1.2062325739999999	181.55112829999999
      1.220994358	190.98810510000001
      1.234730984	200.84723579999999
      1.2475531	211.16296399999999
      1.2595570490000001	221.97273730000001
      1.270827143	233.31744900000001
      1.281437594	245.2419931
      1.291454146	257.79594609999998
      1.3009354369999999	271.03439809999998
      1.309934159	285.01896390000002
      1.318498043	299.81902289999999
      1.326670706	315.51324579999999
      1.3344924010000001	332.19149570000002
      1.3420006879999999	349.95721329999998
      1.3492310569999999	368.93044570000001
      1.356217531	389.25173360000002
      1.362993272	411.08716509999999
      1.3695912379999999	434.63503709999998
      1.3760449050000001	460.1347695
      1.382389146	487.87903890000001
      1.3886613240000001	518.23060969999995
      1.394902732	551.64618570000005
      1.401160583	588.71104339999999
      1.4074908660000001	630.19074279999995
      1.4139626249999999	677.11087850000001
      1.420664664	730.8848299
      1.4277165590000001	793.52783980000004
      1.435287779	868.03580320000003
      1.4436331710000001	959.10175079999999
      1.453164339	1074.5891859999999
      1.464608755	1228.9034079999999
      1.479413587	1451.8548430000001
      1.5007295060000001	1812.597843
      1.531321148	2396.2922779999999
      1.5749716949999999	3340.7297119999998
      1.6351726849999999	4868.8615820000005
      1.6746062129999999	6056.7860730000002
      1.7053540309999999	7126.7301200000002
      1.7307497590000001	8135.9466300000004
      1.752580204	9119.3875740000003
      1.771845345	10098.25848
      1.789165838	11087.22133
      1.804957089	12097.58993
      1.819514077	13138.977849999999
      1.8330565510000001	14220.25051
      1.845754994	15350.15127
      1.8577465099999999	16537.778849999999
      1.869145125	17793.012470000001
      1.8800488470000001	19126.948680000001
      1.8905448170000001	20552.403480000001
      1.9007133519999999	22084.53774
      1.9106314310000001	23741.68173
      1.920376064	25546.46932
      1.930027954	27527.455720000002
      1.9396760099999999	29721.505959999999
      1.9494234969999999	32177.45292
      1.959397184	34961.935420000002
      1.969762051	38169.180130000001
      1.980746793	41938.394229999998
      1.9926918389999999	46487.096960000003
      2.0061495709999999	52181.595710000001
      2.022124024	59707.652569999998
      2.042772002	70576.241299999994
      2.0725625070000002	88161.987269999998
      2.1158769670000002	116616.322
      2.1803765140000002	162656.4026
      2.2792825830000001	237150.818
      2.3747656959999999	310949.48619999998
  <EndBlock>
  <BeginBlock>
    <BlockName> = "ShaftAir"
    <Mu_x> = 1
    <Mu_y> = 1
    <H_c> = 0
    <H_cAngle> = 0
    <J_re> = 0
    <J_im> = 0
    <Sigma> = 0
    <d_lam> = 0
    <Phi_h> = 0
    <Phi_hx> = 0
    <Phi_hy> = 0
    <LamType> = 0
    <LamFill> = 1
    <NStrands> = 0
    <WireD> = 0
    <BHPoints> = 3
      -100	-7.9577471545947675e-011
      0	0
      100	7.9577471545947675e-011
  <EndBlock>
  <BeginBlock>
    <BlockName> = "Copper"
    <Mu_x> = 1
    <Mu_y> = 1
    <H_c> = 0
    <H_cAngle> = 0
    <J_re> = 0
    <J_im> = 0
    <Sigma> = 58
    <d_lam> = 0
    <Phi_h> = 0
    <Phi_hx> = 0
    <Phi_hy> = 0
    <LamType> = 0
    <LamFill> = 1
    <NStrands> = 0
    <WireD> = 0
    <BHPoints> = 0
  <EndBlock>
  <BeginBlock>
    <BlockName> = "Aluminium"
    <Mu_x> = 1
    <Mu_y> = 1
    <H_c> = 0
    <H_cAngle> = 0
    <J_re> = 0
    <J_im> = 0
    <Sigma> = 29
    <d_lam> = 0
    <Phi_h> = 0
    <Phi_hx> = 0
    <Phi_hy> = 0
    <LamType> = 0
    <LamFill> = 1
    <NStrands> = 0
    <WireD> = 0
    <BHPoints> = 0
  <EndBlock>
  <BeginBlock>
    <BlockName> = "Air"
    <Mu_x> = 1
    <Mu_y> = 1
    <H_c> = 0
    <H_cAngle> = 0
    <J_re> = 0
    <J_im> = 0
    <Sigma> = 0
    <d_lam> = 0
    <Phi_h> = 0
    <Phi_hx> = 0
    <Phi_hy> = 0
    <LamType> = 0
    <LamFill> = 1
    <NStrands> = 0
    <WireD> = 0
    <BHPoints> = 0
  <EndBlock>
  <BeginBlock>
    <BlockName> = "DW235"
    <Mu_x> = 1
    <Mu_y> = 1
    <H_c> = 0
    <H_cAngle> = 0
    <J_re> = 0
    <J_im> = 0
    <Sigma> = 0
    <d_lam> = 0
    <Phi_h> = 0
    <Phi_hx> = 0
    <Phi_hy> = 0
    <LamType> = 0
    <LamFill> = 1
    <NStrands> = 0
    <WireD> = 0
    <BHPoints> = 0
  <EndBlock>
  <BeginBlock>
    <BlockName> = "Air"
    <Mu_x> = 1
    <Mu_y> = 1
    <H_c> = 0
    <H_cAngle> = 0
    <J_re> = 0
    <J_im> = 0
    <Sigma> = 0
    <d_lam> = 0
    <Phi_h> = 0
    <Phi_hx> = 0
    <Phi_hy> = 0
    <LamType> = 0
    <LamFill> = 1
    <NStrands> = 0
    <WireD> = 0
    <BHPoints> = 0
  <EndBlock>
[CircuitProps]  = 6
  <BeginCircuit>
    <CircuitName> = "fase1"
    <TotalAmps_re> = 0
    <TotalAmps_im> = 0
    <CircuitType> = 1
  <EndCircuit>
  <BeginCircuit>
    <CircuitName> = "fase2"
    <TotalAmps_re> = 0
    <TotalAmps_im> = 0
    <CircuitType> = 1
  <EndCircuit>
  <BeginCircuit>
    <CircuitName> = "fase3"
    <TotalAmps_re> = 0
    <TotalAmps_im> = 0
    <CircuitType> = 1
  <EndCircuit>
  <BeginCircuit>
    <CircuitName> = "fase1n"
    <TotalAmps_re> = 0
    <TotalAmps_im> = 0
    <CircuitType> = 1
  <EndCircuit>
  <BeginCircuit>
    <CircuitName> = "fase2n"
    <TotalAmps_re> = 0
    <TotalAmps_im> = 0
    <CircuitType> = 1
  <EndCircuit>
  <BeginCircuit>
    <CircuitName> = "fase3n"
    <TotalAmps_re> = 0
    <TotalAmps_im> = 0
    <CircuitType> = 1
  <EndCircuit>
[NumPoints] = 163
450.13971426680814	71.295126711995081	0	2
426.88599147871764	67.61209884274146	0	2
456.02092266808677	107.74365797239983	0	2
454.78086485944266	129.01720558849013	0	2
436.6233228337307	127.95878307330671	0	2
466.9962914200056	38.447906890855371	0	2
472.39081410452843	17.832361868979078	0	2
454.79489489665121	13.227992437015466	0	2
480	0	0	20
252.72	0	0	2
456.50712782167369	148.32815729997475	0	20
240.35100279811121	78.094774818436704	0	2
0	0	0	2
800	0	0	1
485.09090909090907	0	0	20
760.8452130361228	247.2135954999579	0	1
461.34887008644898	149.90133472588357	0	20
492.24242666894958	10.920738460164928	0	1
492.28306041369854	8.5928327825827679	0	1
493.23346296039523	14.895567922337186	0	1
780.94725183220316	24.942754823126965	0	1
786.39665063078826	19.808870596052042	0	1
786.54685352302783	13.729226397329697	0	1
786.60891865299766	7.6480437482443051	0	1
781.34200945657653	2.3271056693257712	0	1
493.45284628506937	2.3271056693257712	0	1
492.32369415844749	6.2649271050006075	0	1
639.52782687083811	2.3271056693257712	0	1
639.21945861480492	19.993511225608117	0	1
484.97080706781219	10.793811867893776	0	1
485.05207455731011	6.1380005127294552	0	1
491.56143760668868	28.093098787727556	0	1
491.68328933497673	25.768029304627149	0	1
492.41315063789443	32.100093558973121	0	1
779.60103027717457	52.18222641096456	0	1
785.22627942490317	47.241650882849697	0	1
785.58856734026483	41.170952244449147	0	1
785.86282487564358	35.095640129324245	0	1
780.78482219893726	29.594130941983583	0	1
493.07103332712921	19.546944041193804	0	1
491.80514106326478	23.442959821526742	0	1
639.05702898153902	24.644887344464735	0	1
638.13229991265905	42.289769106877912	0	1
484.29867735392816	27.712473651415237	0	1
484.54238081050426	23.062334685214424	0	1
490.2815566519389	45.231232001827465	0	1
490.48447790620492	42.911831452224476	0	1
490.99290874177251	49.265510176247808	0	1
777.30498495508584	79.358121993976184	0	1
783.09923095237468	74.616874495065076	0	1
783.67316249883982	68.562517628157764	0	1
784.15927829906661	62.500477878975545	0	1
779.2763689061303	56.825100324715002	0	1
492.0884892668501	36.742967472723556	0	1
490.68739916047099	40.59243090262148	0	1
637.80763854161478	46.932643020628348	0	1
636.26767529981487	64.534503418730523	0	1
483.03650430218079	44.597372054571778	0	1
483.44234681071282	39.958570955365786	0	1
488.40434314249302	62.314257927070322	0	1
488.68808669444638	60.003352143258169	0	1
488.97446761800842	66.370904358142823	0	1
774.06191324348367	106.43733192951974	0	1
780.01809669412023	101.9011889395566	0	1
780.80297262450665	95.870550145382694	0	1
781.50035443235936	89.829168423791884	0	1
776.81848739613372	83.986837075936435	0	1
490.50641118282033	53.894225258208046	0	1
488.97183024639969	57.692446359446016	0	1
635.78117774086274	69.163218500690775	0	1
633.62785653413994	86.700612378945607	0	1
481.18582567601067	61.427935429578341	0	1
481.75331277991739	56.806123861954028	0	1
485.93208417384977	79.32136352780465	0	1
486.29630432567973	77.021767992513148	0	1
486.36028642619453	83.395435816731521	0	1
769.87576632569153	133.38686437152128	0	1
775.98663053762095	129.06135248200013	0	1
776.98149460150853	123.06177916498162	0	1
777.88929276467763	117.04841596400647	0	1
773.41417221896006	111.04624880336132	0	1
488.32672659348481	70.979821231984403	0	1
486.66052447750963	74.72217245722166	0	1
632.98011550961644	91.3095292527872	0	1
630.2160598281672	108.76108999818248	0	1
478.74889624224875	78.183658327512063	0	1
479.47733654590866	73.584467256929074	0	1
482.86779181274005	96.231828265599702	0	1
483.31204481829536	93.946344681763108	0	1
483.15355014342913	100.31836278285962	0	1
764.75164437690194	160.17388546595748	0	1
771.00974420338855	156.06427464682167	0	1
772.21338431216236	150.10307636288192	0	1
773.3304928184217	144.12505803929523	0	1
769.0675710082578	137.97036778198265	0	1
485.55209110876086	87.978939227192868	0	1
483.75629782385067	91.660861097926499	0	1
629.4078645107337	113.34459340864385	0	1
626.03644193063599	130.68905898261815	0	1
475.72868502402974	94.84412648104302	0	1
476.61719103514042	90.273159313369788	0	1
479.21519942738786	113.02504934402995	0	1
479.73894403281327	110.75646222134337	0	1
479.35816568391306	117.119067276796	0	1
758.69579035039942	186.76575935384906	0	1
765.09350126079096	182.8770565328447	0	1
766.50445096438511	176.96149608384047	0	1
767.82950878909742	171.0261059321264	0	1
763.78397942805975	164.72639112016759	0	1
482.18588519458694	104.8708684370697	0	1
480.26268863823873	108.48787509865679	0	1
625.06877698179392	135.24156463682829	0	1
621.09409506213353	152.45780347978985	0	1
472.12887168349528	111.38904167607456	0	1
473.17636089434603	106.85186743070139	0	1
474.97875713897605	129.68056681000866	0	1
475.58135524214651	127.43164007243203	0	1
474.97875713897605	133.7770802280649	0	1
751.71558237148247	213.13008793302777	0	1
758.24510974052623	209.4670308955335	0	1
759.86165001406721	203.60431548064969	0	1
761.3930427783821	197.71878485943131	0	1
757.56983472083141	191.28172072492796	0	1
478.23221005434505	121.63502864787488	0	1
476.18395334531687	125.18271333485542	0	1
619.96813943256552	156.97376485086872	0	1
615.39504071100907	174.04080162774568	0	1
467.9538420386919	127.79824648199032	0	1
469.15903824503278	123.30039300683708	0	1
470.16362639985914	146.17808848108933	0	1
470.84434382780898	143.95156209943181	0	1
470.020660143334	150.2721064138554	0	1
743.81952474835464	239.23475033023334	0	1
750.47291335274826	235.80180194699867	0	1
752.29307469092134	229.99907438188623	0	1
754.02893662864881	224.17057390362905	0	1
750.43270786468315	217.6040030176753	0	1
473.69588263217668	138.25099531271243	0	1
471.52506125575883	141.72503571777429	0	1
614.11216620420976	178.51471671239321	0	1
608.9462222971174	195.41175786784842	0	1
463.20868272012797	144.05174881037854	0	1
464.57011757602766	139.59869604706347	0	1
799.51266161527656	27.919597362000776	0	1
484.79540481580858	16.929428582231377	0	1
798.05124020785934	55.805178995300238	0	1
483.90925201694745	33.838231263513869	0	1
795.61751629461867	83.622770614122771	0	1
482.43353033500966	50.705807272381719	0	1
792.21445499325625	111.33848076805235	0	1
480.3700377095472	67.511606065719008	0	1
787.84620240976642	138.91854213354426	0	1
477.72128818846744	84.235152366430924	0	1
782.51808058704455	166.32935265420744	0	1
474.49050886505336	100.85607110941487	0	1
776.23658102079719	193.53751647973419	0	1
470.68163594624701	117.35411226543881	0	1
769.00935675065512	220.50988465359933	0	1
466.29930995698811	133.70917551268249	0	1
483.39393939393938	0	0	20
459.73495599819057	149.37694225058064	0	20
481.69696969696969	0	0	20
458.1210419099321	148.85254977527768	0	20
[NumSegments] = 140
0	1	3.6363636363636367	0	0	2
2	0	3.6363636363636367	0	0	2
1	4	3.6363636363636367	0	0	2
5	0	3.6363636363636367	0	0	2
1	7	3.6363636363636367	0	0	2
8	9	-1	4	0	2
11	10	-1	4	0	2
9	12	-1	2	0	2
12	11	-1	2	0	2
13	14	-1	10	0	1
16	15	-1	10	0	1
17	18	3.6363636363636367	0	0	1
19	17	3.6363636363636367	0	0	1
20	28	3.6363636363636367	0	0	1
22	21	3.6363636363636367	0	0	1
23	22	3.6363636363636367	0	0	1
25	27	3.6363636363636367	0	0	1
26	25	3.6363636363636367	0	0	1
18	26	3.6363636363636367	0	0	1
27	24	3.6363636363636367	0	0	1
28	19	3.6363636363636367	0	0	1
27	28	3.6363636363636367	0	0	1
17	29	3.6363636363636367	0	0	1
30	26	3.6363636363636367	0	0	1
31	32	3.6363636363636367	0	0	1
33	31	3.6363636363636367	0	0	1
34	42	3.6363636363636367	0	0	1
36	35	3.6363636363636367	0	0	1
37	36	3.6363636363636367	0	0	1
39	41	3.6363636363636367	0	0	1
40	39	3.6363636363636367	0	0	1
32	40	3.6363636363636367	0	0	1
41	38	3.6363636363636367	0	0	1
42	33	3.6363636363636367	0	0	1
41	42	3.6363636363636367	0	0	1
31	43	3.6363636363636367	0	0	1
44	40	3.6363636363636367	0	0	1
45	46	3.6363636363636367	0	0	1
47	45	3.6363636363636367	0	0	1
48	56	3.6363636363636367	0	0	1
50	49	3.6363636363636367	0	0	1
51	50	3.6363636363636367	0	0	1
53	55	3.6363636363636367	0	0	1
54	53	3.6363636363636367	0	0	1
46	54	3.6363636363636367	0	0	1
55	52	3.6363636363636367	0	0	1
56	47	3.6363636363636367	0	0	1
55	56	3.6363636363636367	0	0	1
45	57	3.6363636363636367	0	0	1
58	54	3.6363636363636367	0	0	1
59	60	3.6363636363636367	0	0	1
61	59	3.6363636363636367	0	0	1
62	70	3.6363636363636367	0	0	1
64	63	3.6363636363636367	0	0	1
65	64	3.6363636363636367	0	0	1
67	69	3.6363636363636367	0	0	1
68	67	3.6363636363636367	0	0	1
60	68	3.6363636363636367	0	0	1
69	66	3.6363636363636367	0	0	1
70	61	3.6363636363636367	0	0	1
69	70	3.6363636363636367	0	0	1
59	71	3.6363636363636367	0	0	1
72	68	3.6363636363636367	0	0	1
73	74	3.6363636363636367	0	0	1
75	73	3.6363636363636367	0	0	1
76	84	3.6363636363636367	0	0	1
78	77	3.6363636363636367	0	0	1
79	78	3.6363636363636367	0	0	1
81	83	3.6363636363636367	0	0	1
82	81	3.6363636363636367	0	0	1
74	82	3.6363636363636367	0	0	1
83	80	3.6363636363636367	0	0	1
84	75	3.6363636363636367	0	0	1
83	84	3.6363636363636367	0	0	1
73	85	3.6363636363636367	0	0	1
86	82	3.6363636363636367	0	0	1
87	88	3.6363636363636367	0	0	1
89	87	3.6363636363636367	0	0	1
90	98	3.6363636363636367	0	0	1
92	91	3.6363636363636367	0	0	1
93	92	3.6363636363636367	0	0	1
95	97	3.6363636363636367	0	0	1
96	95	3.6363636363636367	0	0	1
88	96	3.6363636363636367	0	0	1
97	94	3.6363636363636367	0	0	1
98	89	3.6363636363636367	0	0	1
97	98	3.6363636363636367	0	0	1
87	99	3.6363636363636367	0	0	1
100	96	3.6363636363636367	0	0	1
101	102	3.6363636363636367	0	0	1
103	101	3.6363636363636367	0	0	1
104	112	3.6363636363636367	0	0	1
106	105	3.6363636363636367	0	0	1
107	106	3.6363636363636367	0	0	1
109	111	3.6363636363636367	0	0	1
110	109	3.6363636363636367	0	0	1
102	110	3.6363636363636367	0	0	1
111	108	3.6363636363636367	0	0	1
112	103	3.6363636363636367	0	0	1
111	112	3.6363636363636367	0	0	1
101	113	3.6363636363636367	0	0	1
114	110	3.6363636363636367	0	0	1
115	116	3.6363636363636367	0	0	1
117	115	3.6363636363636367	0	0	1
118	126	3.6363636363636367	0	0	1
120	119	3.6363636363636367	0	0	1
121	120	3.6363636363636367	0	0	1
123	125	3.6363636363636367	0	0	1
124	123	3.6363636363636367	0	0	1
116	124	3.6363636363636367	0	0	1
125	122	3.6363636363636367	0	0	1
126	117	3.6363636363636367	0	0	1
125	126	3.6363636363636367	0	0	1
115	127	3.6363636363636367	0	0	1
128	124	3.6363636363636367	0	0	1
129	130	3.6363636363636367	0	0	1
131	129	3.6363636363636367	0	0	1
132	140	3.6363636363636367	0	0	1
134	133	3.6363636363636367	0	0	1
135	134	3.6363636363636367	0	0	1
137	139	3.6363636363636367	0	0	1
138	137	3.6363636363636367	0	0	1
130	138	3.6363636363636367	0	0	1
139	136	3.6363636363636367	0	0	1
140	131	3.6363636363636367	0	0	1
139	140	3.6363636363636367	0	0	1
129	141	3.6363636363636367	0	0	1
142	138	3.6363636363636367	0	0	1
143	144	3.6363636363636367	0	0	1
145	146	3.6363636363636367	0	0	1
147	148	3.6363636363636367	0	0	1
149	150	3.6363636363636367	0	0	1
151	152	3.6363636363636367	0	0	1
153	154	3.6363636363636367	0	0	1
155	156	3.6363636363636367	0	0	1
157	158	3.6363636363636367	0	0	1
159	14	0.36363636363636365	7	0	20
160	16	0.36363636363636365	7	0	20
161	8	0.36363636363636365	5	0	20
162	10	0.36363636363636365	5	0	20
[NumArcSegments] = 62
2	3	25.004202313751598	1.0582591315331853	0	0	2	1.0582591315331853
3	4	154.99579768624685	5.591705421761505	0	0	2	5.591705421761505
6	5	25.004202313751573	1.0582591315332204	0	0	2	1.0582591315332204
7	6	154.99579768624685	5.5917054217566982	0	0	2	5.5917054217566982
8	10	18	0.10851473392629229	0	0	2	0.10851473392629229
9	11	18	0.20610585740986193	0	0	2	0.20610585740986193
13	143	2.0000000000000009	3.6363636363636367	1	0	1	0.22
14	30	0.72499999999999998	0.10737589863771052	0	0	1	0.10737589863771052
21	20	90.584745886307729	9.8889799966688017	0	0	1	9.8889799966688017
24	23	90.58474588630898	9.888979996668942	0	0	1	9.888979996668942
29	144	0.72500000000000009	0.10737589863771052	0	0	1	0.10737589863771052
30	29	0.55000000000000027	0.10737589863771052	0	0	1	0.10737589863771052
35	34	90.584745886307374	9.8889799966688425	0	0	1	9.8889799966688425
38	37	90.584745886307758	9.8889799966689349	0	0	1	9.8889799966689349
43	146	0.72499999999999931	0.10737589863771052	0	0	1	0.10737589863771052
44	43	0.54999999999999982	0.10737589863771052	0	0	1	0.10737589863771052
49	48	90.584745886308298	9.8889799966690486	0	0	1	9.8889799966690486
52	51	90.584745886308127	9.8889799966689367	0	0	1	9.8889799966689367
57	148	0.72499999999999853	0.10737589863771052	0	0	1	0.10737589863771052
58	57	0.54999999999999982	0.10737589863771052	0	0	1	0.10737589863771052
63	62	90.584745886307161	9.8889799966688319	0	0	1	9.8889799966688319
66	65	90.58474588630952	9.8889799966689651	0	0	1	9.8889799966689651
71	150	0.72500000000000009	0.10737589863771052	0	0	1	0.10737589863771052
72	71	0.55000000000000082	0.10737589863771052	0	0	1	0.10737589863771052
77	76	90.584745886306678	9.888979996668704	0	0	1	9.888979996668704
80	79	90.584745886308198	9.8889799966689331	0	0	1	9.8889799966689331
85	152	0.72500000000000031	0.10737589863771052	0	0	1	0.10737589863771052
86	85	0.55000000000000493	0.10737589863771052	0	0	1	0.10737589863771052
91	90	90.584745886308042	9.8889799966687892	0	0	1	9.8889799966687892
94	93	90.584745886309378	9.8889799966689669	0	0	1	9.8889799966689669
99	154	0.72499999999999853	0.10737589863771052	0	0	1	0.10737589863771052
100	99	0.55000000000000326	0.10737589863771052	0	0	1	0.10737589863771052
105	104	90.584745886307616	9.8889799966686525	0	0	1	9.8889799966686525
108	107	90.584745886308298	9.8889799966689793	0	0	1	9.8889799966689793
113	156	0.72499999999999853	0.10737589863771052	0	0	1	0.10737589863771052
114	113	0.54999999999999982	0.10737589863771052	0	0	1	0.10737589863771052
119	118	90.584745886307431	9.8889799966689669	0	0	1	9.8889799966689669
122	121	90.584745886308951	9.8889799966689882	0	0	1	9.8889799966689882
127	158	0.72499999999999531	0.10737589863771052	0	0	1	0.10737589863771052
128	127	0.55000000000000171	0.10737589863771052	0	0	1	0.10737589863771052
133	132	90.584745886307559	9.8889799966689367	0	0	1	9.8889799966689367
136	135	90.58474588630817	9.8889799966689331	0	0	1	9.8889799966689331
141	16	0.72499999999999876	0.10737589863771052	0	0	1	0.10737589863771052
142	141	0.55000000000000315	0.10737589863771052	0	0	1	0.10737589863771052
143	145	2.0000000000000018	3.6363636363636367	1	0	1	0.5
144	44	0.72500000000000098	0.10737589863771052	0	0	1	0.10737589863771052
145	147	2	3.6363636363636367	1	0	1	0.5
146	58	0.72500000000000098	0.10737589863771052	0	0	1	0.10737589863771052
147	149	2.0000000000000013	3.6363636363636367	1	0	1	0.5
148	72	0.72499999999999931	0.10737589863771052	0	0	1	0.10737589863771052
149	151	1.9999999999999989	3.6363636363636367	1	0	1	0.40000000000000002
150	86	0.72500000000000198	0.10737589863771052	0	0	1	0.10737589863771052
151	153	1.9999999999999989	3.6363636363636367	1	0	1	0.33000000000000002
152	100	0.72500000000000009	0.10737589863771052	0	0	1	0.10737589863771052
153	155	2.0000000000000058	3.6363636363636367	1	0	1	0.5
154	114	0.72500000000000164	0.10737589863771052	0	0	1	0.10737589863771052
155	157	1.9999999999999971	3.6363636363636367	1	0	1	0.5
156	128	0.72499999999999687	0.10737589863771052	0	0	1	0.10737589863771052
157	15	2.000000000000004	3.6363636363636367	1	0	1	0.22
158	142	0.72500000000000164	0.10737589863771052	0	0	1	0.10737589863771052
159	160	18	0.36363636363636365	11	0	20	0.058999999999999997
161	162	18	0.36363636363636365	11	0	20	0.058999999999999997
[NumHoles] = 0
[NumBlockLabels] = 42
449.14170345375339	121.57321554473222	7	3.6363636363636367	0	0	2	1	0
464.72733347372844	23.169420398949974	7	3.6363636363636367	0	0	2	1	0
338.24729445696039	53.5731084238543	1	3.6363636363636367	0	0	22	1	0
124.80429871760161	19.767059002483574	7	3.6363636363636367	0	0	2	1	0
565.82835157826003	9.8765706150248551	3	3.6363636363636367	1	0	1	1	0