[Format]      =  4.0
[Frequency]   =  0
[Precision]   =  1e-008
[MinAngle]    =  15
[DoSmartMesh] =  1
[Depth]       =  300
[LengthUnits] =  millimeters
[ProblemType] =  planar
[Coordinates] =  cartesian
[ACSolver]    =  0
[PrevType]    =  0
[PrevSoln]    =  ""
[Comment]     =  "Add comments here."
[PointProps]   = 0
[BdryProps]   = 11
  <BeginBdry>
    <BdryName> = "A=0"
    <BdryType> = 0
    <A_0> = 0
    <A_1> = 0
    <A_2> = 0
    <Phi> = 0
    <c0> = 0
    <c0i> = 0
    <c1> = 0
    <c1i> = 0
    <Mu_ssd> = 0
    <Sigma_ssd> = 0
    <innerangle> = 0
    <outerangle> = 0
  <EndBdry>
  <BeginBdry>
    <BdryName> = "APr1"
    <BdryType> = 5
    <A_0> = 0
    <A_1> = 0
    <A_2> = 0
    <Phi> = 0
    <c0> = 0
    <c0i> = 0
    <c1> = 0
    <c1i> = 0
    <Mu_ssd> = 0
    <Sigma_ssd> = 0
    <innerangle> = 0
    <outerangle> = 0
  <EndBdry>
  <BeginBdry>
    <BdryName> = "APr2"
    <BdryType> = 5
    <A_0> = 0
    <A_1> = 0
    <A_2> = 0
    <Phi> = 0
    <c0> = 0
    <c0i> = 0
    <c1> = 0
    <c1i> = 0
    <Mu_ssd> = 0
    <Sigma_ssd> = 0
    <innerangle> = 0
    <outerangle> = 0
  <EndBdry>
  <BeginBdry>
    <BdryName> = "APr3"
    <BdryType> = 5
    <A_0> = 0
    <A_1> = 0
    <A_2> = 0
    <Phi> = 0
    <c0> = 0
    <c0i> = 0
    <c1> = 0
    <c1i> = 0
    <Mu_ssd> = 0
    <Sigma_ssd> = 0
    <innerangle> = 0
    <outerangle> = 0
  <EndBdry>
  <BeginBdry>
    <BdryName> = "APg1"
    <BdryType> = 5
    <A_0> = 0
    <A_1> = 0
    <A_2> = 0
    <Phi> = 0
    <c0> = 0
    <c0i> = 0
    <c1> = 0
    <c1i> = 0
    <Mu_ssd> = 0
    <Sigma_ssd> = 0
    <innerangle> = 0
    <outerangle> = 0
  <EndBdry>
  <BeginBdry>
    <BdryName> = "APg2"
    <BdryType> = 5
    <A_0> = 0
    <A_1> = 0
    <A_2> = 0
    <Phi> = 0
    <c0> = 0
    <c0i> = 0
    <c1> = 0
    <c1i> = 0
    <Mu_ssd> = 0
    <Sigma_ssd> = 0
    <innerangle> = 0
    <outerangle> = 0
  <EndBdry>
  <BeginBdry>
    <BdryName> = "APg3"
    <BdryType> = 5
    <A_0> = 0
    <A_1> = 0
    <A_2> = 0
    <Phi> = 0
    <c0> = 0
    <c0i> = 0
    <c1> = 0
    <c1i> = 0
    <Mu_ssd> = 0
    <Sigma_ssd> = 0
    <innerangle> = 0
    <outerangle> = 0
  <EndBdry>
  <BeginBdry>
    <BdryName> = "APs1"
    <BdryType> = 5
    <A_0> = 0
    <A_1> = 0
    <A_2> = 0
    <Phi> = 0
    <c0> = 0
    <c0i> = 0
    <c1> = 0
    <c1i> = 0
    <Mu_ssd> = 0
    <Sigma_ssd> = 0
    <innerangle> = 0
    <outerangle> = 0
  <EndBdry>
  <BeginBdry>
    <BdryName> = "APs2"
    <BdryType> = 5
    <A_0> = 0
    <A_1> = 0
    <A_2> = 0
    <Phi> = 0
    <c0> = 0
    <c0i> = 0
    <c1> = 0
    <c1i> = 0
    <Mu_ssd> = 0
    <Sigma_ssd> = 0
    <innerangle> = 0
    <outerangle> = 0
  <EndBdry>
  <BeginBdry>
    <BdryName> = "APs3"
    <BdryType> = 5
    <A_0> = 0
    <A_1> = 0
    <A_2> = 0
    <Phi> = 0
    <c0> = 0
    <c0i> = 0
    <c1> = 0
    <c1i> = 0
    <Mu_ssd> = 0
    <Sigma_ssd> = 0
    <innerangle> = 0
    <outerangle> = 0
  <EndBdry>
  <BeginBdry>
    <BdryName> = "AGap"
    <BdryType> = 7
    <A_0> = 0
    <A_1> = 0
    <A_2> = 0
    <Phi> = 0
    <c0> = 0
    <c0i> = 0
    <c1> = 0
    <c1i> = 0
    <Mu_ssd> = 0
    <Sigma_ssd> = 0
    <innerangle> = 0
    <outerangle> = 0
  <EndBdry>
[BlockProps]  = 7
  <BeginBlock>
    <BlockName> = "M600-50A"
    <Mu_x> = 1
    <Mu_y> = 1
    <H_c> = 0
    <H_cAngle> = 0
    <J_re> = 0
    <J_im> = 0
    <Sigma> = 0
    <d_lam> = 0
    <Phi_h> = 0
    <Phi_hx> = 0
    <Phi_hy> = 0
    <LamType> = 0
    <LamFill> = 1
    <NStrands> = 0
    <WireD> = 0
    <BHPoints> = 208
      0	0
      0.0061294119999999999	8.2635015680000006
      0.012398954	15.54584049
      0.018188152999999999	21.42337126
      0.023698273999999998	26.396066560000001
      0.028962854999999999	30.670770340000001
      0.034031080999999998	34.409892589999998
      0.038937833999999998	37.72521158
      0.043710287	40.697869570000002
      0.048369641999999997	43.388214720000001
      0.052932743999999997	45.842257519999997
      0.057413198999999998	48.095830579999998
      0.061822165999999998	50.17736026
      0.066168929000000001	52.109762629999999
      0.070461307000000001	53.911772880000001
      0.074705967999999998	55.598898519999999
      0.078908651999999996	57.184116670000002
      0.083074354000000003	58.67839326
      0.087207454000000004	60.091076020000003
      0.091311829999999997	61.430196219999999
      0.095390935999999996	62.702703470000003
      0.099447875000000005	63.914650479999999
      0.10348545000000001	65.071340269999993
      0.107506212	66.177444339999994
      0.111512495	67.237098649999993
      0.115506446	68.253982050000005
      0.119490053	69.231381029999994
      0.123465163	70.172243330000001
      0.127433505	71.079222909999999
      0.131396704	71.954717669999994
      0.13535628999999999	72.800901379999999
      0.139313718	73.619750830000001
      0.14327037200000001	74.413069070000006
      0.147227575	75.182505329999998
      0.151186599	75.929572239999999
      0.15514867099999999	76.655660710000006
      0.15911497799999999	77.362052919999996
      0.16308667299999999	78.049933670000001
      0.167064883	78.720400249999997
      0.171050709	79.374471249999999
      0.17504523399999999	80.013094219999999
      0.17904952399999999	80.637152520000001
      0.183064634	81.247471390000001
      0.18709161099999999	81.844823349999999
      0.19113149500000001	82.429933079999998
      0.19518532499999999	83.003481679999993
      0.19925414	83.566110629999997
      0.203338983	84.118425299999998
      0.20744090200000001	84.6609981
      0.21156095499999999	85.194371430000004
      0.21570021	85.719060249999998
      0.21985974999999999	86.23555451
      0.224040674	86.744321339999999
      0.228244101	87.245807119999995
      0.232471172	87.740439260000002
      0.23672305199999999	88.228628009999994
      0.241000933	88.710768049999999
      0.245306038	89.187239969999993
      0.249639624	89.658411700000002
      0.25400298399999999	90.124639849999994
      0.258397449	90.586270990000003
      0.26282439699999999	91.043642790000007
      0.267285249	91.497085290000001
      0.27178147899999999	91.946921900000007
      0.27631461499999999	92.393470609999994
      0.28088624499999998	92.837044969999994
      0.28549801899999999	93.277955219999996
      0.29015165799999998	93.716509279999997
      0.294848956	94.153013889999997
      0.299591787	94.587775629999996
      0.30438211199999998	95.021102040000002
      0.30922198299999998	95.45330276
      0.31411355600000002	95.884690719999995
      0.31905909100000002	96.315583349999997
      0.324060968	96.746303900000001
      0.32912169099999999	97.177182860000002
      0.33424390300000001	97.608559369999995
      0.33943039400000002	98.040782919999998
      0.34468411100000002	98.474215020000003
      0.35000818	98.909231149999997
      0.35540591100000002	99.346222819999994
      0.36088082199999999	99.785599880000007
      0.366436651	100.2277931
      0.37207738099999998	100.67325700000001
      0.37780725700000001	101.1224732
      0.38363081700000001	101.57595360000001
      0.389552911	102.03424510000001
      0.39557873700000001	102.4979336
      0.401713873	102.9676498
      0.40796431599999999	103.44407510000001
      0.41433652900000001	103.9279489
      0.420837509	104.4200783
      0.42747497499999998	104.9213567
      0.43425898400000001	105.43288579999999
      0.44146202099999998	105.9749185
      0.44856258700000001	106.5079061
      0.45587690400000003	107.05707719999999
      0.46342101400000002	107.62377619999999
      0.47120716099999999	108.2090887
      0.47924850299999999	108.8142005
      0.48755929799999997	109.4404164
      0.496155022	110.0891769
      0.50505251799999995	110.7620768
      0.51427015700000001	111.4608879
      0.52382802100000003	112.1875854
      0.53374812500000002	112.944379
      0.54405466000000002	113.73375040000001
      0.55477427700000004	114.558498
      0.56593642099999997	115.4217907
      0.57757370900000005	116.3272333
      0.58972237000000005	117.2789456
      0.60242275199999995	118.28165920000001
      0.61571989900000001	119.3408371
      0.62966422099999997	120.4628209
      0.64431222899999996	121.65501310000001
      0.65972736300000001	122.92610569999999
      0.67598086099999999	124.28636400000001
      0.69315263800000004	125.74798269999999
      0.71133206000000004	127.3255305
      0.73061842099999996	129.03650049999999
      0.75112078999999998	130.90198509999999
      0.772956635	132.94748089999999
      0.79624826999999998	135.20380520000001
      0.82111564500000001	137.70804709999999
      0.84766332799999999	140.50436830000001
      0.87595905799999996	143.6442744
      0.90600166900000001	147.18571779999999
      0.93767904199999996	151.19014369999999
      0.97072398500000001	155.71669249999999
      1.0046871660000001	160.81373919999999
      1.0389539999999999	166.5100477
      1.0728218	172.80985770000001
      1.1056189649999999	179.69557180000001
      1.1368151129999999	187.13741469999999
      1.166076154	195.10516089999999
      1.1932571599999999	203.57694960000001
      1.2183581130000001	212.54344710000001
      1.2414717689999999	222.00841339999999
      1.262740478	231.98749659999999
      1.2823264919999999	242.50660869999999
      1.3003940249999999	253.6005657
      1.317099609	265.31223169999998
      1.332587655	277.69219570000001
      1.346989049	290.79894300000001
      1.360421377	304.69948410000001
      1.3729899480000001	319.47042970000001
      1.3847891750000001	335.19953839999999
      1.395904035	351.98780690000001
      1.406411522	369.95222330000001
      1.416382027	389.22936779999998
      1.4258806550000001	409.98013700000001
      1.4349684949999999	432.3959911
      1.443703884	456.70731569999998
      1.452143746	483.19477810000001
      1.460345062	512.205018
      1.468366627	544.17275689999997
      1.476271267	579.65265699999998
      1.484128812	619.36640990000001
      1.4920203320000001	664.27439319999996
      1.5000444559999999	715.68841520000001
      1.5083273020000001	775.45608200000004
      1.517038858	846.27605440000002
      1.52642144	932.26565330000005
      1.5368418420000001	1040.044543
      1.5488919160000001	1180.938134
      1.5635876129999999	1375.704356
      1.5827254589999999	1664.518061
      1.609038255	2120.3213700000001
      1.6429877180000001	2803.4219309999999
      1.6763000130000001	3588.174364
      1.7038913950000001	4346.5592559999996
      1.7268422349999999	5076.0393119999999
      1.746445904	5791.6494789999997
      1.7635818270000001	6506.5344940000004
      1.778835427	7231.1495919999998
      1.792609184	7974.1327339999998
      1.805191346	8743.1111569999994
      1.8167966790000001	9545.295204
      1.8275911469999999	10387.927960000001
      1.837707435	11278.663500000001
      1.8472551399999999	12225.930109999999
      1.8563277979999999	13239.325269999999
      1.865008022	14330.08987
      1.873371527	15511.71947
      1.8814906259999999	16800.793989999998
      1.88943763	18218.15107
      1.8972886259999999	19790.607090000001
      1.905128269	21553.57647
      1.913056538	23555.22162
      1.921199232	25863.341659999998
      1.92972568	28577.465530000001
      1.938881257	31851.611560000001
      1.949053186	35941.14198
      1.960921235	41311.621829999996
      1.975868577	48939.738250000002
      1.9972472800000001	61282.289870000001
      2.0280781640000001	81252.957920000001
      2.0737002590000002	113566.1776
      2.1433819129999998	165850.06529999999
      2.250195926	248560.18210000001
      2.3541325240000002	331270.29889999999
      2.4580691219999999	413980.41570000001
      2.5620057200000002	496690.53249999997
      2.665942319	579400.64930000005
      2.7698789170000002	662110.76610000001
      2.873815515	744820.88289999997
      2.9777521130000002	827530.99970000004
      3.081688711	910241.1165
  <EndBlock>
  <BeginBlock>
    <BlockName> = "ShaftAir"
    <Mu_x> = 1
    <Mu_y> = 1
    <H_c> = 0
    <H_cAngle> = 0
    <J_re> = 0
    <J_im> = 0
    <Sigma> = 0
    <d_lam> = 0
    <Phi_h> = 0
    <Phi_hx> = 0
    <Phi_hy> = 0
    <LamType> = 0
    <LamFill> = 1
    <NStrands> = 0
    <WireD> = 0
    <BHPoints> = 3
      -100	-7.9577471545947675e-011
      0	0
      100	7.9577471545947675e-011
  <EndBlock>
  <BeginBlock>
    <BlockName> = "Copper"
    <Mu_x> = 1
    <Mu_y> = 1
    <H_c> = 0
    <H_cAngle> = 0
    <J_re> = 0
    <J_im> = 0
    <Sigma> = 58
    <d_lam> = 0
    <Phi_h> = 0
    <Phi_hx> = 0
    <Phi_hy> = 0
    <LamType> = 0
    <LamFill> = 1
    <NStrands> = 0
    <WireD> = 0
    <BHPoints> = 0
  <EndBlock>
  <BeginBlock>
    <BlockName> = "Aluminium"
    <Mu_x> = 1
    <Mu_y> = 1
    <H_c> = 0
    <H_cAngle> = 0
    <J_re> = 0
    <J_im> = 0
    <Sigma> = 29
    <d_lam> = 0
    <Phi_h> = 0
    <Phi_hx> = 0
    <Phi_hy> = 0
    <LamType> = 0
    <LamFill> = 1
    <NStrands> = 0
    <WireD> = 0
    <BHPoints> = 0
  <EndBlock>
  <BeginBlock>
    <BlockName> = "Air"
    <Mu_x> = 1
    <Mu_y> = 1
    <H_c> = 0
    <H_cAngle> = 0
    <J_re> = 0
    <J_im> = 0
    <Sigma> = 0
    <d_lam> = 0
    <Phi_h> = 0
    <Phi_hx> = 0
    <Phi_hy> = 0
    <LamType> = 0
    <LamFill> = 1
    <NStrands> = 0
    <WireD> = 0
    <BHPoints> = 0
  <EndBlock>
  <BeginBlock>
    <BlockName> = "DW235"
    <Mu_x> = 1
    <Mu_y> = 1
    <H_c> = 0
    <H_cAngle> = 0
    <J_re> = 0
    <J_im> = 0
    <Sigma> = 0
    <d_lam> = 0
    <Phi_h> = 0
    <Phi_hx> = 0
    <Phi_hy> = 0
    <LamType> = 0
    <LamFill> = 1
    <NStrands> = 0
    <WireD> = 0
    <BHPoints> = 0
  <EndBlock>
  <BeginBlock>
    <BlockName> = "Air"
    <Mu_x> = 1
    <Mu_y> = 1
    <H_c> = 0
    <H_cAngle> = 0
    <J_re> = 0
    <J_im> = 0
    <Sigma> = 0
    <d_lam> = 0
    <Phi_h> = 0
    <Phi_hx> = 0
    <Phi_hy> = 0
    <LamType> = 0
    <LamFill> = 1
    <NStrands> = 0
    <WireD> = 0
    <BHPoints> = 0
  <EndBlock>
[CircuitProps]  = 6
  <BeginCircuit>
    <CircuitName> = "fase1"
    <TotalAmps_re> = 0
    <TotalAmps_im> = 0
    <CircuitType> = 1
  <EndCircuit>
  <BeginCircuit>
    <CircuitName> = "fase2"
    <TotalAmps_re> = 0
    <TotalAmps_im> = 0
    <CircuitType> = 1
  <EndCircuit>
  <BeginCircuit>
    <CircuitName> = "fase3"
    <TotalAmps_re> = 0
    <TotalAmps_im> = 0
    <CircuitType> = 1
  <EndCircuit>
  <BeginCircuit>
    <CircuitName> = "fase1n"
    <TotalAmps_re> = 0
    <TotalAmps_im> = 0
    <CircuitType> = 1
  <EndCircuit>
  <BeginCircuit>
    <CircuitName> = "fase2n"
    <TotalAmps_re> = 0
    <TotalAmps_im> = 0
    <CircuitType> = 1
  <EndCircuit>
  <BeginCircuit>
    <CircuitName> = "fase3n"
    <TotalAmps_re> = 0
    <TotalAmps_im> = 0
    <CircuitType> = 1
  <EndCircuit>
[NumPoints] = 143
768.58423252043144	24.153732567911938	0	2
766.57458432118813	24.090576828948972	0	2
768.35973186433898	31.267394269592273	0	2
772.62486669377574	31.536668719482421	0	2
774.28097760806907	33.376154875791876	0	2
773.99267879672493	33.635429477448106	0	2
766.28985505817946	33.150808885023999	0	2
763.85872115903453	24.005227390677796	0	2
760.47885827848916	23.899010920603729	0	2
763.48955429672787	35.734424261636342	0	2
771.05819023040453	36.211154052678324	0	2
773.99277744152062	39.499119842862356	0	2
773.69584804283386	39.765535700998051	0	2
760.00811594755817	38.903565380470347	0	2
758.19164634711137	23.827132389950727	0	2
753.62426407610394	23.68359661958036	0	2
757.64964467969003	41.060884830155373	0	2
770.34890059704026	41.860252627992729	0	2
773.65747555206292	45.597264418047104	0	2
772.55095952562669	46.577463261169093	0	2
752.94398411961527	45.343476093009215	0	2
768.80873317652402	17.040070866231595	0	2
773.08235961925686	17.041003932701862	0	2
774.84881707096667	15.307210187473439	0	2
774.57736713840995	15.030344772873946	0	2
766.8593135841968	15.030344772873947	0	2
764.22788802134119	12.276030519719249	0	2
771.8115230921477	12.276581011013382	0	2
774.945649752956	9.1782312549211582	0	2
774.66444665631548	8.895266070295234	0	2
760.94960060942003	8.8944564607371106	0	2
758.73364801453272	6.5933799497460832	0	2
771.45803757052056	6.5937775011464765	0	2
774.99391517122547	3.0710661952286991	0	2
773.95031224680895	2.0241371503706418	0	2
754.30454403259262	2.0237171461515082	0	2
776	0	0	20
693.33000000000004	0	0	2
774.46874126033867	48.725443154747175	0	20
691.9618716211736	43.534550905258847	0	2
0	0	0	2
800	0	0	1
777	0	0	20
798.4213827426172	50.232415623450699	0	1
775.46676798876695	48.788233674276491	0	20
778.98197255173341	5.2993023191393505	0	1
778.98836308875502	4.0788108055587804	0	1
779.43546245274331	6.2852600777763437	0	1
791.39564610012133	6.3478840252047277	0	1
791.82939342818042	5.9192522608791869	0	1
791.84114548870934	4.1461084318372565	0	1
791.84796205193823	2.3729387603557317	0	1
791.41872704582158	1.9397883898013575	0	1
779.45854339844357	1.8771644423729734	0	1
778.99475362577664	2.8583192919782103	0	1
785.42476104607022	1.9084037704073031	0	1
785.40168010036996	6.3164994058106734	0	1
776.98199996723861	5.2888303914765116	0	1
776.99478104128184	2.8478473643153714	0	1
778.88376732607105	13.456342802039906	0	1
778.90293823634147	12.23598512910749	0	1
779.32690762514574	14.44699534832969	0	1
791.28577970360777	14.634860323193296	0	1
791.72399178832711	14.21079416939979	0	1
791.75431118386791	12.437870627999825	0	1
791.77969562334147	10.664869562114987	0	1
791.35502000962288	10.22724808515107	0	1
779.39614793116084	10.039383110287464	0	1
778.92210914661166	11.015627456175075	0	1
785.36171131578931	10.133097668646098	0	1
785.2924710097742	14.540709906688324	0	1
776.88401406110779	13.424928167416265	0	1
776.92235588164851	10.984212821551433	0	1
778.70014871809906	21.611907645313021	0	1
778.73209789931184	20.391817638999775	0	1
779.13289081991115	22.607146343040252	0	1
791.08913990436952	22.920231743827543	0	1
791.53176869085576	22.500777704198619	0	1
791.5806520965449	20.72826887148597	0	1
791.62460162857349	18.955630840744604	0	1
791.20453197771951	18.513586247497638	0	1
779.24828289326115	18.200500846710344	0	1
778.76404708052451	19.17172763268653	0	1
785.21253782364045	18.356680358535893	0	1
785.09714575029034	22.763325854865801	0	1
776.70083406814797	21.559553748697276	0	1
776.76473243057342	19.119373736070784	0	1
778.43113686366712	29.765102499368759	0	1
778.47586081223449	28.545413956293046	0	1
778.85343331316835	30.764818209394914	0	1
790.80574826617647	31.203089702763545	0	1
791.25274521519509	30.788293775161474	0	1
791.32018727041645	29.016394026703995	0	1
791.3826970754385	27.244313420841983	0	1
790.96727945282032	26.797894186483013	0	1
779.01496449981221	26.359622693114382	0	1
778.52058476080185	27.325725413217331	0	1
784.97725692817824	26.578250031563392	0	1
784.81572574153438	30.983445547843921	0	1
776.43248007610998	29.691815081955649	0	1
776.5219279732446	27.252437995804222	0	1
778.07676126295655	37.915033274513227	0	1
778.13425507439342	36.69587994726843	0	1
778.48856575058244	38.919116366744923	0	1
790.43563586611515	39.48252589128677	0	1
790.88695195941364	39.072433562759336	0	1
790.97294526838573	37.301337207331954	0	1
791.05400849149669	35.530008354957268	0	1
790.64328845233797	35.079263434386021	0	1
778.69621833680526	34.515853909844175	0	1
778.19174888583052	35.476726620023634	0	1
784.65589443060412	34.796905099965272	0	1
784.44824184438141	39.200167556866027	0	1
776.07898151303255	37.820820373093937	0	1
776.19396913590663	35.382513718604343	0	1
777.6370607772451	46.060806238995553	0	1
777.70731814670739	44.842321821482614	0	1
778.03832814399311	47.069146604406747	0	1
789.97884329118108	47.757632375918398	0	1
790.43442903686389	47.352288617710741	0	1
790.53896416945145	45.582189875987268	0	1
790.63857192115529	43.811807023269623	0	1
790.23259450553667	43.356785845746074	0	1
778.29207935834859	42.66830007423443	0	1
777.77757551616992	43.623837403969674	0	1
784.24848557193752	43.011744295597467	0	1
783.99473435758205	47.412590825769783	0	1
775.64037714401718	45.945678185076417	0	1
775.78089188294189	43.508709350050545	0	1
799.95613549240966	8.377427292996634	0	1
776.95739659700291	8.1365762583229806	0	1
799.82454677987641	16.753935906685566	0	1
776.82959105995496	16.272260249368355	0	1
799.60524829258532	25.128607262502634	0	1
776.61659740417349	24.406159803705684	0	1
799.29826407908672	33.500522983359694	0	1
776.31843898681291	32.5373829475881	0	1
798.90362780365911	41.868764994355054	0	1
775.93514850430392	40.665038000767346	0	1
776.66666666666663	0	0	20
775.13409241262423	48.767303501100052	0	20
776.33333333333337	0	0	20
774.80141683648151	48.746373327923621	0	20
[NumSegments] = 120
0	1	0.91428571428571415	0	0	2
2	0	0.91428571428571415	0	0	2
3	2	0.91428571428571415	0	0	2
6	5	0.91428571428571415	0	0	2
1	6	0.91428571428571415	0	0	2
7	8	0.91428571428571415	0	0	2
9	7	0.91428571428571415	0	0	2
10	9	0.91428571428571415	0	0	2
13	12	0.91428571428571415	0	0	2
8	13	0.91428571428571415	0	0	2
14	15	0.91428571428571415	0	0	2
16	14	0.91428571428571415	0	0	2
17	16	0.91428571428571415	0	0	2
20	19	0.91428571428571415	0	0	2
15	20	0.91428571428571415	0	0	2
21	0	0.91428571428571415	0	0	2
22	21	0.91428571428571415	0	0	2
25	24	0.91428571428571415	0	0	2
1	25	0.91428571428571415	0	0	2
26	7	0.91428571428571415	0	0	2
27	26	0.91428571428571415	0	0	2
30	29	0.91428571428571415	0	0	2
8	30	0.91428571428571415	0	0	2
31	14	0.91428571428571415	0	0	2
32	31	0.91428571428571415	0	0	2
35	34	0.91428571428571415	0	0	2
15	35	0.91428571428571415	0	0	2
36	37	-1	4	0	2
39	38	-1	4	0	2
37	40	-1	2	0	2
40	39	-1	2	0	2
41	42	-1	10	0	1
44	43	-1	10	0	1
45	46	0.91428571428571415	0	0	1
47	45	0.91428571428571415	0	0	1
48	56	0.91428571428571415	0	0	1
50	49	0.91428571428571415	0	0	1
51	50	0.91428571428571415	0	0	1
53	55	0.91428571428571415	0	0	1
54	53	0.91428571428571415	0	0	1
46	54	0.91428571428571415	0	0	1
55	52	0.91428571428571415	0	0	1
56	47	0.91428571428571415	0	0	1
55	56	0.91428571428571415	0	0	1
45	57	0.91428571428571415	0	0	1
58	54	0.91428571428571415	0	0	1
59	60	0.91428571428571415	0	0	1
61	59	0.91428571428571415	0	0	1
62	70	0.91428571428571415	0	0	1
64	63	0.91428571428571415	0	0	1
65	64	0.91428571428571415	0	0	1
67	69	0.91428571428571415	0	0	1
68	67	0.91428571428571415	0	0	1
60	68	0.91428571428571415	0	0	1
69	66	0.91428571428571415	0	0	1
70	61	0.91428571428571415	0	0	1
69	70	0.91428571428571415	0	0	1
59	71	0.91428571428571415	0	0	1
72	68	0.91428571428571415	0	0	1
73	74	0.91428571428571415	0	0	1
75	73	0.91428571428571415	0	0	1
76	84	0.91428571428571415	0	0	1
78	77	0.91428571428571415	0	0	1
79	78	0.91428571428571415	0	0	1
81	83	0.91428571428571415	0	0	1
82	81	0.91428571428571415	0	0	1
74	82	0.91428571428571415	0	0	1
83	80	0.91428571428571415	0	0	1
84	75	0.91428571428571415	0	0	1
83	84	0.91428571428571415	0	0	1
73	85	0.91428571428571415	0	0	1
86	82	0.91428571428571415	0	0	1
87	88	0.91428571428571415	0	0	1
89	87	0.91428571428571415	0	0	1
90	98	0.91428571428571415	0	0	1
92	91	0.91428571428571415	0	0	1
93	92	0.91428571428571415	0	0	1
95	97	0.91428571428571415	0	0	1
96	95	0.91428571428571415	0	0	1
88	96	0.91428571428571415	0	0	1
97	94	0.91428571428571415	0	0	1
98	89	0.91428571428571415	0	0	1
97	98	0.91428571428571415	0	0	1
87	99	0.91428571428571415	0	0	1
100	96	0.91428571428571415	0	0	1
101	102	0.91428571428571415	0	0	1
103	101	0.91428571428571415	0	0	1
104	112	0.91428571428571415	0	0	1
106	105	0.91428571428571415	0	0	1
107	106	0.91428571428571415	0	0	1
109	111	0.91428571428571415	0	0	1
110	109	0.91428571428571415	0	0	1
102	110	0.91428571428571415	0	0	1
111	108	0.91428571428571415	0	0	1
112	103	0.91428571428571415	0	0	1
111	112	0.91428571428571415	0	0	1
101	113	0.91428571428571415	0	0	1
114	110	0.91428571428571415	0	0	1
115	116	0.91428571428571415	0	0	1
117	115	0.91428571428571415	0	0	1
118	126	0.91428571428571415	0	0	1
120	119	0.91428571428571415	0	0	1
121	120	0.91428571428571415	0	0	1
123	125	0.91428571428571415	0	0	1
124	123	0.91428571428571415	0	0	1
116	124	0.91428571428571415	0	0	1
125	122	0.91428571428571415	0	0	1
126	117	0.91428571428571415	0	0	1
125	126	0.91428571428571415	0	0	1
115	127	0.91428571428571415	0	0	1
128	124	0.91428571428571415	0	0	1
129	130	0.91428571428571415	0	0	1
131	132	0.91428571428571415	0	0	1
133	134	0.91428571428571415	0	0	1
135	136	0.91428571428571415	0	0	1
137	138	0.91428571428571415	0	0	1
139	42	0.091428571428571415	7	0	20
140	44	0.091428571428571415	7	0	20
141	36	0.091428571428571415	5	0	20
142	38	0.091428571428571415	5	0	20
[NumArcSegments] = 52
3	4	88.868263775914301	7.4084030180830354	0	0	2	7.4084030180830354
4	5	91.131736224091	10	0	0	2	10
10	11	89.321437151340021	4.1775318898189546	0	0	2	4.1775318898189546
11	12	90.678562848656796	10	0	0	2	10
17	18	89.772955365031208	3.7033412662863663	0	0	2	3.7033412662863663
18	19	90.227044634964827	10	0	0	2	10
23	22	88.868263775909668	7.4084030178761413	0	0	2	7.4084030178761413
24	23	91.131736224114519	10	0	0	2	10
28	27	89.321437151337037	4.1775318898353158	0	0	2	4.1775318898353158
29	28	90.678562848625702	10	0	0	2	10
33	32	89.772955365028679	3.7033412662651282	0	0	2	3.7033412662651282
34	33	90.2270446349699	10	0	0	2	10
36	38	3.6000000000000001	0.016876518266003629	0	0	2	0.016876518266003629
37	39	3.6000000000000001	0.018888809332379693	0	0	2	0.018888809332379693
41	129	0.59999999999999998	0.91428571428571415	1	0	1	0.059999999999999998
42	58	0.21000000000000008	0.01685479816527518	0	0	1	0.01685479816527518
49	48	89.920260018862265	10	0	0	1	10
52	51	89.920260018856922	10	0	0	1	10
57	130	0.2099999999999998	0.01685479816527518	0	0	1	0.01685479816527518
58	57	0.18000000000000008	0.01685479816527518	0	0	1	0.01685479816527518
63	62	89.920260018866401	10	0	0	1	10
66	65	89.920260018867836	10	0	0	1	10
71	132	0.21000000000000002	0.01685479816527518	0	0	1	0.01685479816527518
72	71	0.18000000000000022	0.01685479816527518	0	0	1	0.01685479816527518
77	76	89.92026001886876	10	0	0	1	10
80	79	89.920260018866216	10	0	0	1	10
85	134	0.20999999999999938	0.01685479816527518	0	0	1	0.01685479816527518
86	85	0.18000000000000022	0.01685479816527518	0	0	1	0.01685479816527518
91	90	89.920260018865633	10	0	0	1	10
94	93	89.920260018852218	10	0	0	1	10
99	136	0.2100000000000006	0.01685479816527518	0	0	1	0.01685479816527518
100	99	0.17999999999999944	0.01685479816527518	0	0	1	0.01685479816527518
105	104	89.920260018863416	10	0	0	1	10
108	107	89.920260018841134	10	0	0	1	10
113	138	0.2099999999999998	0.01685479816527518	0	0	1	0.01685479816527518
114	113	0.17999999999999985	0.01685479816527518	0	0	1	0.01685479816527518
119	118	89.92026001887001	10	0	0	1	10
122	121	89.920260018850612	10	0	0	1	10
127	44	0.2100000000000006	0.01685479816527518	0	0	1	0.01685479816527518
128	127	0.17999999999999983	0.01685479816527518	0	0	1	0.01685479816527518
129	131	0.59999999999999964	0.91428571428571415	1	0	1	0.10000000000000001
130	72	0.2099999999999998	0.01685479816527518	0	0	1	0.01685479816527518
131	133	0.59999999999999987	0.91428571428571415	1	0	1	0.10000000000000001
132	86	0.21000000000000044	0.01685479816527518	0	0	1	0.01685479816527518
133	135	0.59999999999999931	0.91428571428571415	1	0	1	0.12
134	100	0.2100000000000003	0.01685479816527518	0	0	1	0.01685479816527518
135	137	0.60000000000000009	0.91428571428571415	1	0	1	0.10000000000000001
136	114	0.2100000000000006	0.01685479816527518	0	0	1	0.01685479816527518
137	43	0.60000000000000087	0.91428571428571415	1	0	1	0.055
138	128	0.21000000000000066	0.01685479816527518	0	0	1	0.01685479816527518
139	140	3.6000000000000001	0.091428571428571415	11	0	20	0.01
141	142	3.6000000000000001	0.091428571428571415	11	0	20	0.01
[NumHoles] = 0
[NumBlockLabels] = 34
773.63350935714811	32.848816649530946	7	0.91428571428571415	0	0	2	1	0
772.9155071333829	38.491026715208321	7	0.91428571428571415	0	0	2	1	0
772.18581278140459	44.677782807496129	7	0.91428571428571415	0	0	2	1	0
774.16888534373834	15.792211144561598	7	0.91428571428571415	0	0	2	1	0
773.80736153963596	10.115790917143736	7	0.91428571428571415	0	0	2	1	0
773.46742166285162	3.8957819118355772	7	0.91428571428571415	0	0	2	1	0
723.30607378723823	22.730809105609524	1	0.91428571428571415	0	0	22	1	0
346.49394174918638	10.889010795819345	7	0.91428571428571415	0	0	2	1	0
782.20079183098767	4.0956311968338843	3	0.91428571428571415	1	0	1	1	0
788.62564931545251	4.1292719793840913	3	0.91428571428571415	1	0	1	1	0
777.98885608250282	4.0735773512858975	7	0.91428571428571415	0	0	10	1	0
795.91508964332536	4.1674397484864603	1	0.91428571428571415	0	0	12	1	0
782.11501469956158	12.286444458387351	3	0.91428571428571415	1	0	1	1	0
788.53916762600181	12.387363116947069	3	0.91428571428571415	1	0	1	1	0
777.90354083729574	12.220285340196078	7	0.91428571428571415	0	0	10	1	0
795.82780858459807	12.501862238728181	1	0.91428571428571415	0	0	12	1	0
781.9434698431387	20.475910372850315	3	0.91428571428571415	3	0	1	-1	0
788.36621373079208	20.644095840551376	3	0.91428571428571415	3	0	1	-1	0
777.73291970265996	20.365653237108607	7	0.91428571428571415	0	0	10	1	0
795.65325603849533	20.834913758892242	1	0.91428571428571415	0	0	12	1	0
781.68617607354554	28.663130872998352	3	0.91428571428571415	3	0	1	-1	0
788.10680659616708	28.898564706408955	3	0.91428571428571415	3	0	1	-1	0
777.47701138912521	28.508787810643636	7	0.91428571428571415	0	0	10	1	0
795.39145114667076	29.165680495974506	1	0.91428571428571415	0	0	12	1	0
781.34316160594324	36.847208137842046	3	0.91428571428571415	2	0	1	1	0
787.76097466904241	37.149864518989254	3	0.91428571428571415	2	0	1	1	0
777.13584395992211	36.648796074330384	7	0.91428571428571415	0	0	10	1	0
795.04242261898094	37.493248887523038	1	0.91428571428571415	0	0	12	1	0
780.91446405573367	45.027244691083126	3	0.91428571428571415	2	0	1	1	0
787.32875587378567	45.397090430284116	3	0.91428571428571415	2	0	1	1	0
776.70945482790376	44.784785384533194	7	0.91428571428571415	0	0	10	1	0
794.60620873033702	45.81670572182054	1	0.91428571428571415	0	0	12	1	0
776.45001297744591	24.400924677192663	7	0.091428571428571415	0	0	20	1	0
775.78367527053535	24.379984171140574	7	0.091428571428571415	0	0	20	1	0
