[Format]      =  4.0
[Frequency]   =  0
[Precision]   =  1e-008
[MinAngle]    =  15
[DoSmartMesh] =  1
[Depth]       =  200
[LengthUnits] =  millimeters
[ProblemType] =  planar
[Coordinates] =  cartesian
[ACSolver]    =  0
[PrevType]    =  0
[PrevSoln]    =  ""
[Comment]     =  "Add comments here."
[PointProps]   = 0
[BdryProps]   = 11
  <BeginBdry>
    <BdryName> = "A=0"
    <BdryType> = 0
    <A_0> = 0
    <A_1> = 0
    <A_2> = 0
    <Phi> = 0
    <c0> = 0
    <c0i> = 0
    <c1> = 0
    <c1i> = 0
    <Mu_ssd> = 0
    <Sigma_ssd> = 0
    <innerangle> = 0
    <outerangle> = 0
  <EndBdry>
  <BeginBdry>
    <BdryName> = "APr1"
    <BdryType> = 5
    <A_0> = 0
    <A_1> = 0
    <A_2> = 0
    <Phi> = 0
    <c0> = 0
    <c0i> = 0
    <c1> = 0
    <c1i> = 0
    <Mu_ssd> = 0
    <Sigma_ssd> = 0
    <innerangle> = 0
    <outerangle> = 0
  <EndBdry>
  <BeginBdry>
    <BdryName> = "APr2"
    <BdryType> = 5
    <A_0> = 0
    <A_1> = 0
    <A_2> = 0
    <Phi> = 0
    <c0> = 0
    <c0i> = 0
    <c1> = 0
    <c1i> = 0
    <Mu_ssd> = 0
    <Sigma_ssd> = 0
    <innerangle> = 0
    <outerangle> = 0
  <EndBdry>
  <BeginBdry>
    <BdryName> = "APr3"
    <BdryType> = 5
    <A_0> = 0
    <A_1> = 0
    <A_2> = 0
    <Phi> = 0
    <c0> = 0
    <c0i> = 0
    <c1> = 0
    <c1i> = 0
    <Mu_ssd> = 0
    <Sigma_ssd> = 0
    <innerangle> = 0
    <outerangle> = 0
  <EndBdry>
  <BeginBdry>
    <BdryName> = "APg1"
    <BdryType> = 5
    <A_0> = 0
    <A_1> = 0
    <A_2> = 0
    <Phi> = 0
    <c0> = 0
    <c0i> = 0
    <c1> = 0
    <c1i> = 0
    <Mu_ssd> = 0
    <Sigma_ssd> = 0
    <innerangle> = 0
    <outerangle> = 0
  <EndBdry>
  <BeginBdry>
    <BdryName> = "APg2"
    <BdryType> = 5
    <A_0> = 0
    <A_1> = 0
    <A_2> = 0
    <Phi> = 0
    <c0> = 0
    <c0i> = 0
    <c1> = 0
    <c1i> = 0
    <Mu_ssd> = 0
    <Sigma_ssd> = 0
    <innerangle> = 0
    <outerangle> = 0
  <EndBdry>
  <BeginBdry>
    <BdryName> = "APg3"
    <BdryType> = 5
    <A_0> = 0
    <A_1> = 0
    <A_2> = 0
    <Phi> = 0
    <c0> = 0
    <c0i> = 0
    <c1> = 0
    <c1i> = 0
    <Mu_ssd> = 0
    <Sigma_ssd> = 0
    <innerangle> = 0
    <outerangle> = 0
  <EndBdry>
  <BeginBdry>
    <BdryName> = "APs1"
    <BdryType> = 5
    <A_0> = 0
    <A_1> = 0
    <A_2> = 0
    <Phi> = 0
    <c0> = 0
    <c0i> = 0
    <c1> = 0
    <c1i> = 0
    <Mu_ssd> = 0
    <Sigma_ssd> = 0
    <innerangle> = 0
    <outerangle> = 0
  <EndBdry>
  <BeginBdry>
    <BdryName> = "APs2"
    <BdryType> = 5
    <A_0> = 0
    <A_1> = 0
    <A_2> = 0
    <Phi> = 0
    <c0> = 0
    <c0i> = 0
    <c1> = 0
    <c1i> = 0
    <Mu_ssd> = 0
    <Sigma_ssd> = 0
    <innerangle> = 0
    <outerangle> = 0
  <EndBdry>
  <BeginBdry>
    <BdryName> = "APs3"
    <BdryType> = 5
    <A_0> = 0
    <A_1> = 0
    <A_2> = 0
    <Phi> = 0
    <c0> = 0
    <c0i> = 0
    <c1> = 0
    <c1i> = 0
    <Mu_ssd> = 0
    <Sigma_ssd> = 0
    <innerangle> = 0
    <outerangle> = 0
  <EndBdry>
  <BeginBdry>
    <BdryName> = "AGap"
    <BdryType> = 7
    <A_0> = 0
    <A_1> = 0
    <A_2> = 0
    <Phi> = 0
    <c0> = 0
    <c0i> = 0
    <c1> = 0
    <c1i> = 0
    <Mu_ssd> = 0
    <Sigma_ssd> = 0
    <innerangle> = 0
    <outerangle> = 0
  <EndBdry>
[BlockProps]  = 9
  <BeginBlock>
    <BlockName> = "M270-35A"
    <Mu_x> = 1
    <Mu_y> = 1
    <H_c> = 0
    <H_cAngle> = 0
    <J_re> = 0
    <J_im> = 0
    <Sigma> = 0
    <d_lam> = 0
    <Phi_h> = 0
    <Phi_hx> = 0
    <Phi_hy> = 0
    <LamType> = 0
    <LamFill> = 1
    <NStrands> = 0
    <WireD> = 0
    <BHPoints> = 200
      0	0
      0.0045422769999999999	3.2767874890000002
      0.0090353559999999996	6.114592773
      0.013222249	8.4602422570000009
      0.017196487	10.462328400000001
      0.020991169	12.199266809999999
      0.024640190999999999	13.72982376
      0.028168996000000002	15.09561901
      0.031597466999999997	16.327217480000002
      0.034941272000000002	17.447599879999999
      0.038212956999999999	18.47443998
      0.041422729999999998	19.421601849999998
      0.044579012000000001	20.300151339999999
      0.047688851999999997	21.119056130000001
      0.050758219	21.885681389999998
      0.053792226999999998	22.60614816
      0.056795300999999999	23.285597330000002
      0.059771310000000001	23.928387470000001
      0.062723663999999998	24.538245379999999
      0.065655396000000005	25.11838217
      0.068569221	25.67158405
      0.071467592999999996	26.200284
      0.074352739000000001	26.70661905
      0.077226698999999996	27.19247648
      0.080091349000000006	27.65953137
      0.082948429000000004	28.109277410000001
      0.085799557999999998	28.54305239
      0.088646256000000007	28.96205934
      0.091489953999999998	29.36738437
      0.094332005999999996	29.760011540000001
      0.097173704999999999	30.140835630000002
      0.100016285	30.510672870000001
      0.102860934	30.870270300000001
      0.105708802	31.220313650000001
      0.108561001	31.561434299999998
      0.11141862	31.894215259999999
      0.114282722	32.21919639
      0.117154355	32.536878999999999
      0.120034552	32.847729870000002
      0.12292433699999999	33.152184810000001
      0.12582473199999999	33.45065185
      0.12873675200000001	33.743513989999997
      0.13166142	34.031131799999997
      0.13459976100000001	34.313845620000002
      0.137552811	34.591977620000002
      0.14052161499999999	34.865833639999998
      0.14350723800000001	35.135704879999999
      0.14651076099999999	35.401869419999997
      0.14953328699999999	35.664593680000003
      0.15257594699999999	35.924133650000002
      0.155639899	36.180736189999998
      0.158726334	36.434640119999997
      0.161836481	36.686077320000003
      0.16497160599999999	36.93527375
      0.16813302299999999	37.182450420000002
      0.17132209400000001	37.427824389999998
      0.17454023399999999	37.671609650000001
      0.17778891699999999	37.914018050000003
      0.18106968000000001	38.155260249999998
      0.18438413100000001	38.395546590000002
      0.18773395400000001	38.635088090000004
      0.191120915	38.87409736
      0.19454686800000001	39.112789630000002
      0.19801376800000001	39.351383830000003
      0.20152367299999999	39.590103640000002
      0.20507876	39.829178749999997
      0.208681327	40.068846100000002
      0.21233381500000001	40.309351300000003
      0.216038808	40.550950149999998
      0.21979905799999999	40.793910310000001
      0.22361749	41.038513199999997
      0.227497227	41.285056060000002
      0.2314416	41.53385428
      0.23545417299999999	41.785244059999997
      0.23953876299999999	42.039585369999998
      0.24369946200000001	42.297265359999997
      0.247940667	42.558702250000003
      0.25226710400000002	42.824349750000003
      0.25668386300000001	43.0947022
      0.26119642799999998	43.370300520000001
      0.26581071499999998	43.651739030000002
      0.27054201700000002	43.94020278
      0.275438138	44.23873004
      0.28051031599999998	44.548036490000001
      0.28576849199999999	44.868763260000001
      0.29122336399999998	45.201605100000002
      0.296886504	45.547319020000003
      0.30277045699999999	45.906731970000003
      0.30888884599999999	46.280749559999997
      0.31525650100000002	46.670366299999998
      0.321889598	47.076677459999999
      0.328805825	47.50089294
      0.33602457000000002	47.944353649999996
      0.34356714500000002	48.408550759999997
      0.351457032	48.895148689999999
      0.35972019	49.406012390000001
      0.36838539799999998	49.943240269999997
      0.37748466600000002	50.509203810000002
      0.38705371900000002	51.106595769999998
      0.39713256899999999	51.738489119999997
      0.40776619800000002	52.408409570000003
      0.41900536300000002	53.120425429999997
      0.43090757000000002	53.879259759999997
      0.44353822799999998	54.690431349999997
      0.45697202599999998	55.560433060000001
      0.47129457299999999	56.49695913
      0.486604327	57.509196449999997
      0.503014823	58.60819978
      0.520657166	59.807376320000003
      0.53968265500000001	61.123111049999999
      0.56026517099999995	62.575567960000001
      0.58260257699999995	64.189698669999999
      0.60691558199999995	65.996464399999994
      0.63344113800000001	68.034201780000004
      0.662415215	70.349880479999996
      0.69403682899999997	72.999622560000006
      0.72840307800000004	76.047204840000006
      0.76540934699999996	79.558509650000005
      0.80463064699999998	83.589963030000007
      0.84524547999999999	88.171938179999998
      0.88609953900000005	93.294734669999997
      0.92594964300000004	98.90894376
      0.963771241	104.9435902
      0.99893980100000002	111.3300564
      1.0312218310000001	118.0174305
      1.0606584889999999	124.9760964
      1.0874410889999999	132.19454709999999
      1.1118223309999999	139.6744898
      1.1340651580000001	147.42664859999999
      1.1544176930000001	155.46782519999999
      1.173103241	163.8190534
      1.1903180360000001	172.50453999999999
      1.2062325739999999	181.55112829999999
      1.220994358	190.98810510000001
      1.234730984	200.84723579999999
      1.2475531	211.16296399999999
      1.2595570490000001	221.97273730000001
      1.270827143	233.31744900000001
      1.281437594	245.2419931
      1.291454146	257.79594609999998
      1.3009354369999999	271.03439809999998
      1.309934159	285.01896390000002
      1.318498043	299.81902289999999
      1.326670706	315.51324579999999
      1.3344924010000001	332.19149570000002
      1.3420006879999999	349.95721329999998
      1.3492310569999999	368.93044570000001
      1.356217531	389.25173360000002
      1.362993272	411.08716509999999
      1.3695912379999999	434.63503709999998
      1.3760449050000001	460.1347695
      1.382389146	487.87903890000001
      1.3886613240000001	518.23060969999995
      1.394902732	551.64618570000005
      1.401160583	588.71104339999999
      1.4074908660000001	630.19074279999995
      1.4139626249999999	677.11087850000001
      1.420664664	730.8848299
      1.4277165590000001	793.52783980000004
      1.435287779	868.03580320000003
      1.4436331710000001	959.10175079999999
      1.453164339	1074.5891859999999
      1.464608755	1228.9034079999999
      1.479413587	1451.8548430000001
      1.5007295060000001	1812.597843
      1.531321148	2396.2922779999999
      1.5749716949999999	3340.7297119999998
      1.6351726849999999	4868.8615820000005
      1.6746062129999999	6056.7860730000002
      1.7053540309999999	7126.7301200000002
      1.7307497590000001	8135.9466300000004
      1.752580204	9119.3875740000003
      1.771845345	10098.25848
      1.789165838	11087.22133
      1.804957089	12097.58993
      1.819514077	13138.977849999999
      1.8330565510000001	14220.25051
      1.845754994	15350.15127
      1.8577465099999999	16537.778849999999
      1.869145125	17793.012470000001
      1.8800488470000001	19126.948680000001
      1.8905448170000001	20552.403480000001
      1.9007133519999999	22084.53774
      1.9106314310000001	23741.68173
      1.920376064	25546.46932
      1.930027954	27527.455720000002
      1.9396760099999999	29721.505959999999
      1.9494234969999999	32177.45292
      1.959397184	34961.935420000002
      1.969762051	38169.180130000001
      1.980746793	41938.394229999998
      1.9926918389999999	46487.096960000003
      2.0061495709999999	52181.595710000001
      2.022124024	59707.652569999998
      2.042772002	70576.241299999994
      2.0725625070000002	88161.987269999998
      2.1158769670000002	116616.322
      2.1803765140000002	162656.4026
      2.2792825830000001	237150.818
      2.3747656959999999	310949.48619999998
  <EndBlock>
  <BeginBlock>
    <BlockName> = "ShaftAir"
    <Mu_x> = 1
    <Mu_y> = 1
    <H_c> = 0
    <H_cAngle> = 0
    <J_re> = 0
    <J_im> = 0
    <Sigma> = 0
    <d_lam> = 0
    <Phi_h> = 0
    <Phi_hx> = 0
    <Phi_hy> = 0
    <LamType> = 0
    <LamFill> = 1
    <NStrands> = 0
    <WireD> = 0
    <BHPoints> = 3
      -100	-7.9577471545947675e-011
      0	0
      100	7.9577471545947675e-011
  <EndBlock>
  <BeginBlock>
    <BlockName> = "Copper"
    <Mu_x> = 1
    <Mu_y> = 1
    <H_c> = 0
    <H_cAngle> = 0
    <J_re> = 0
    <J_im> = 0
    <Sigma> = 58
    <d_lam> = 0
    <Phi_h> = 0
    <Phi_hx> = 0
    <Phi_hy> = 0
    <LamType> = 0
    <LamFill> = 1
    <NStrands> = 0
    <WireD> = 0
    <BHPoints> = 0
  <EndBlock>
  <BeginBlock>
    <BlockName> = "Aluminium"
    <Mu_x> = 1
    <Mu_y> = 1
    <H_c> = 0
    <H_cAngle> = 0
    <J_re> = 0
    <J_im> = 0
    <Sigma> = 29
    <d_lam> = 0
    <Phi_h> = 0
    <Phi_hx> = 0
    <Phi_hy> = 0
    <LamType> = 0
    <LamFill> = 1
    <NStrands> = 0
    <WireD> = 0
    <BHPoints> = 0
  <EndBlock>
  <BeginBlock>
    <BlockName> = "BMH-38EH"
    <Mu_x> = 1.05
    <Mu_y> = 1.05
    <H_c> = 954929.65855137201
    <H_cAngle> = 0
    <J_re> = 0
    <J_im> = 0
    <Sigma> = 0.66666666666666663
    <d_lam> = 0
    <Phi_h> = 0
    <Phi_hx> = 0
    <Phi_hy> = 0
    <LamType> = 0
    <LamFill> = 1
    <NStrands> = 0
    <WireD> = 0
    <BHPoints> = 0
  <EndBlock>
  <BeginBlock>
    <BlockName> = "DW235"
    <Mu_x> = 1
    <Mu_y> = 1
    <H_c> = 0
    <H_cAngle> = 0
    <J_re> = 0
    <J_im> = 0
    <Sigma> = 0
    <d_lam> = 0
    <Phi_h> = 0
    <Phi_hx> = 0
    <Phi_hy> = 0
    <LamType> = 0
    <LamFill> = 1
    <NStrands> = 0
    <WireD> = 0
    <BHPoints> = 0
  <EndBlock>
  <BeginBlock>
    <BlockName> = "Air"
    <Mu_x> = 1
    <Mu_y> = 1
    <H_c> = 0
    <H_cAngle> = 0
    <J_re> = 0
    <J_im> = 0
    <Sigma> = 0
    <d_lam> = 0
    <Phi_h> = 0
    <Phi_hx> = 0
    <Phi_hy> = 0
    <LamType> = 0
    <LamFill> = 1
    <NStrands> = 0
    <WireD> = 0
    <BHPoints> = 0
  <EndBlock>
  <BeginBlock>
    <BlockName> = "BMH-38EH_1"
    <Mu_x> = 1.05
    <Mu_y> = 1.05
    <H_c> = 954929.65855137201
    <H_cAngle> = 0
    <J_re> = 0
    <J_im> = 0
    <Sigma> = 0.66666666666666663
    <d_lam> = 0
    <Phi_h> = 0
    <Phi_hx> = 0
    <Phi_hy> = 0
    <LamType> = 0
    <LamFill> = 1
    <NStrands> = 0
    <WireD> = 0
    <BHPoints> = 0
  <EndBlock>
  <BeginBlock>
    <BlockName> = "BMH-38EH_2"
    <Mu_x> = 1.05
    <Mu_y> = 1.05
    <H_c> = 954929.65855137201
    <H_cAngle> = 0
    <J_re> = 0
    <J_im> = 0
    <Sigma> = 0.66666666666666663
    <d_lam> = 0
    <Phi_h> = 0
    <Phi_hx> = 0
    <Phi_hy> = 0
    <LamType> = 0
    <LamFill> = 1
    <NStrands> = 0
    <WireD> = 0
    <BHPoints> = 0
  <EndBlock>
[CircuitProps]  = 6
  <BeginCircuit>
    <CircuitName> = "fase1"
    <TotalAmps_re> = 0
    <TotalAmps_im> = 0
    <CircuitType> = 1
  <EndCircuit>
  <BeginCircuit>
    <CircuitName> = "fase2"
    <TotalAmps_re> = 0
    <TotalAmps_im> = 0
    <CircuitType> = 1
  <EndCircuit>
  <BeginCircuit>
    <CircuitName> = "fase3"
    <TotalAmps_re> = 0
    <TotalAmps_im> = 0
    <CircuitType> = 1
  <EndCircuit>
  <BeginCircuit>
    <CircuitName> = "fase1n"
    <TotalAmps_re> = 0
    <TotalAmps_im> = 0
    <CircuitType> = 1
  <EndCircuit>
  <BeginCircuit>
    <CircuitName> = "fase2n"
    <TotalAmps_re> = 0
    <TotalAmps_im> = 0
    <CircuitType> = 1
  <EndCircuit>
  <BeginCircuit>
    <CircuitName> = "fase3n"
    <TotalAmps_re> = 0
    <TotalAmps_im> = 0
    <CircuitType> = 1
  <EndCircuit>
[NumPoints] = 61
729.23998644283779	22.917289823402403	0	2
726.74538080003788	22.838893682798524	0	2
728.16030106126698	45.811963048587039	0	20
725.66938883804835	45.655248134905179	0	2
726.55665544170643	43.419935581108994	0	2
725.80923776230202	43.375268964612047	0	2
729.60000000000002	0	0	20
727.10416281221103	3.5527136788005009e-015	0	2
727.8493221613403	2.2866136060845577	0	2
727.10057469993944	2.284261338821775	0	2
570.77999999999997	0	0	2
569.65369605228886	35.839572736941484	0	2
0	0	0	2
760	0	0	1
733.11526364477334	0	0	20
758.50031360548644	47.720794842278167	0	1
731.66862813622288	46.032688279124862	0	20
739.80510362982625	9.8588373807789562	0	1
739.82721184351146	7.7477356590113216	0	1
740.41220784710117	12.223352193208047	0	1
752.17416288952427	12.346527600983052	0	1
753.64354454519651	10.911863632680724	0	1
753.68411275589517	7.8928500906023711	0	1
753.70677889170736	4.8736490715810934	0	1
752.26776483092954	3.4085273411930679	0	1
740.50580978850644	3.2853519334180632	0	1
739.84932005719668	5.6366339372436869	0	1
733.04991848566806	9.7880946614158741	0	1
733.09413491303849	5.565891217880603	0	1
739.43638423321659	25.34998428688877	0	1
739.50269917687899	23.239808564108866	0	1
739.99383664048185	27.726694753576648	0	1
751.75063250068706	28.09616694809683	0	1
753.24973723189623	26.692590032912783	0	1
753.35352199454758	23.675088206896241	0	1
753.43941253475418	20.657024032284511	0	1
752.03139726799793	19.162087190624458	0	1
740.27460140779272	18.792614996104277	0	1
739.56901412054128	21.129632841328963	0	1
732.68416213652358	25.137787158894298	0	1
732.81679202384828	20.917435713334495	0	1
738.74332359988125	40.830011852065532	0	1
738.85381618559472	38.721687721087335	0	1
739.25087968008711	43.217875469250501	0	1
750.99735943884446	43.833482387800167	0	1
752.52552968870941	42.461608180958052	0	1
752.6924854798865	39.446941647033583	0	1
752.84156275005796	36.431338139526339	0	1
751.46516387935446	34.907241915301135	0	1
739.718684120597	34.291634996751469	0	1
738.96430877130808	36.613363590109138	0	1
731.99702629842795	40.4764533921132	0	1
732.21801146985501	36.259805130156799	0	1
759.83331944088263	15.916239111351288	0	1
732.95447935261302	15.353207674146779	0	1
759.3333508751324	31.825496834191707	0	1
732.4721970014366	30.699680923979411	0	1
731.94350909651564	0	0	20
730.49918577790436	45.959113202278928	0	20
730.77175454825783	0	0	20
729.32974341958561	45.88553812543298	0	20
[NumSegments] = 50
0	1	0.67555555555555569	0	0	2
3	2	-1	4	0	2
5	4	0.67555555555555569	0	0	2
7	6	-1	4	0	2
9	8	0.67555555555555569	0	0	2
7	10	-1	3	0	2
11	3	-1	3	0	2
10	12	-1	2	0	2
12	11	-1	2	0	2
13	14	-1	10	0	1
16	15	-1	10	0	1
17	18	0.67555555555555569	0	0	1
19	17	0.67555555555555569	0	0	1
20	19	0.67555555555555569	0	0	1
22	21	0.67555555555555569	0	0	1
23	22	0.67555555555555569	0	0	1
25	24	0.67555555555555569	0	0	1
26	25	0.67555555555555569	0	0	1
18	26	0.67555555555555569	0	0	1
22	18	0.67555555555555569	0	0	1
17	27	0.67555555555555569	0	0	1
28	26	0.67555555555555569	0	0	1
29	30	0.67555555555555569	0	0	1
31	29	0.67555555555555569	0	0	1
32	31	0.67555555555555569	0	0	1
34	33	0.67555555555555569	0	0	1
35	34	0.67555555555555569	0	0	1
37	36	0.67555555555555569	0	0	1
38	37	0.67555555555555569	0	0	1
30	38	0.67555555555555569	0	0	1
34	30	0.67555555555555569	0	0	1
29	39	0.67555555555555569	0	0	1
40	38	0.67555555555555569	0	0	1
41	42	0.67555555555555569	0	0	1
43	41	0.67555555555555569	0	0	1
44	43	0.67555555555555569	0	0	1
46	45	0.67555555555555569	0	0	1
47	46	0.67555555555555569	0	0	1
49	48	0.67555555555555569	0	0	1
50	49	0.67555555555555569	0	0	1
42	50	0.67555555555555569	0	0	1
46	42	0.67555555555555569	0	0	1
41	51	0.67555555555555569	0	0	1
52	50	0.67555555555555569	0	0	1
53	54	0.67555555555555569	0	0	1
55	56	0.67555555555555569	0	0	1
57	14	0.067555555555555563	7	0	20
58	16	0.067555555555555563	7	0	20
59	6	0.067555555555555563	5	0	20
60	2	0.067555555555555563	5	0	20
[NumArcSegments] = 29
0	2	1.7999999999999998	0.013262911924324614	0	0	2	1
1	5	1.6200000000000006	0.013308437820739611	0	0	2	1
0	4	11.31267402744635	0.092249237833543343	0	0	2	1
5	3	0.17999999999999861	0.013308437820739611	0	0	2	1
6	0	1.7999999999999998	0.013262911924324614	0	0	2	1
7	9	0.17999999999999947	0.013308437820739608	0	0	2	1
8	0	11.312674027446358	0.092249237833543413	0	0	2	1
9	1	1.6200000000000001	0.013308437820739609	0	0	2	1
10	11	3.5999999999999996	0.016953327972226147	0	0	2	1
13	53	1.1999999999999995	0.67555555555555569	1	0	1	1
14	28	0.43499999999999994	0.013199316696638834	0	0	1	1
21	20	89.830130196507625	6.6538727063888237	0	0	1	1
24	23	89.830130196512116	6.65387270638867	0	0	1	1
27	54	0.4349999999999995	0.013199316696638834	0	0	1	1
28	27	0.33000000000000035	0.013199316696638834	0	0	1	1
33	32	89.830130196511305	6.653872706388924	0	0	1	1
36	35	89.830130196513096	6.653872706388678	0	0	1	1
39	56	0.43499999999999922	0.013199316696638834	0	0	1	1
40	39	0.32999999999999957	0.013199316696638834	0	0	1	1
45	44	89.830130196509089	6.6538727063891088	0	0	1	1
48	47	89.830130196510851	6.6538727063886842	0	0	1	1
51	16	0.43500000000000077	0.013199316696638834	0	0	1	1
52	51	0.33000000000000046	0.013199316696638834	0	0	1	1
53	55	1.1999999999999988	0.67555555555555569	1	0	1	1
54	40	0.43499999999999966	0.013199316696638834	0	0	1	1
55	15	1.2000000000000002	0.67555555555555569	1	0	1	1
56	52	0.43499999999999917	0.013199316696638834	0	0	1	1
57	58	3.6000000000000001	0.067555555555555563	11	0	20	1
59	60	3.6000000000000001	0.067555555555555563	11	0	20	1
[NumHoles] = 0
[NumBlockLabels] = 20
727.37854233752785	33.157280623459364	8	0.67555555555555569	0	-178.20000000000007	201	1	0
728.02518981457422	12.580624263638759	9	0.67555555555555569	0	-178.20000000000002	202	1	0
726.54889577583083	44.565603932303311	7	0.67555555555555569	0	0	2	1	0
727.9135149183727	1.142718736226584	7	0.67555555555555569	0	0	2	1	0
648.62186766279501	20.383763374706295	1	0.67555555555555569	0	0	22	1	0
285.24917726277613	8.9643165333070325	7	0.67555555555555569	0	0	2	1	0
746.7398537130756	9.3298465150817549	3	0.67555555555555569	1	0	1	1	0
746.77147088633103	6.3107392345319386	3	0.67555555555555569	1	0	1	1	0
736.45113915661318	7.7123802161120025	7	0.67555555555555569	0	0	10	1	0
756.82122073684229	7.9257030094745868	1	0.67555555555555569	0	0	12	1	0
746.38069175999874	24.966339885659622	3	0.67555555555555569	3	0	1	-1	0
746.47552941142783	21.948556885345486	3	0.67555555555555569	3	0	1	-1	0
736.12810734704135	23.133757743476671	7	0.67555555555555569	0	0	10	1	0
756.48925393625188	23.773632553136874	1	0.67555555555555569	0	0	12	1	0
745.69414256740345	40.591882194418389	3	0.67555555555555569	2	0	1	1	0
745.85215909807778	37.576747173702529	3	0.67555555555555569	2	0	1	1	0
735.48218542032578	38.544988040117204	7	0.67555555555555569	0	0	10	1	0
755.82546594668145	39.611134195835447	1	0.67555555555555569	0	0	12	1	0
732.16792733814293	23.009304072937468	7	0.067555555555555563	0	0	20	1	0
729.8255746218988	22.935692673309415	7	0.067555555555555563	0	0	20	1	0
