[Format]      =  4.0
[Frequency]   =  0
[Precision]   =  1e-008
[MinAngle]    =  15
[DoSmartMesh] =  1
[Depth]       =  1000
[LengthUnits] =  millimeters
[ProblemType] =  planar
[Coordinates] =  cartesian
[ACSolver]    =  0
[PrevType]    =  0
[PrevSoln]    =  ""
[Comment]     =  "Add comments here."
[PointProps]   = 0
[BdryProps]   = 11
  <BeginBdry>
    <BdryName> = "A=0"
    <BdryType> = 0
    <A_0> = 0
    <A_1> = 0
    <A_2> = 0
    <Phi> = 0
    <c0> = 0
    <c0i> = 0
    <c1> = 0
    <c1i> = 0
    <Mu_ssd> = 0
    <Sigma_ssd> = 0
    <innerangle> = 0
    <outerangle> = 0
  <EndBdry>
  <BeginBdry>
    <BdryName> = "APr1"
    <BdryType> = 5
    <A_0> = 0
    <A_1> = 0
    <A_2> = 0
    <Phi> = 0
    <c0> = 0
    <c0i> = 0
    <c1> = 0
    <c1i> = 0
    <Mu_ssd> = 0
    <Sigma_ssd> = 0
    <innerangle> = 0
    <outerangle> = 0
  <EndBdry>
  <BeginBdry>
    <BdryName> = "APr2"
    <BdryType> = 5
    <A_0> = 0
    <A_1> = 0
    <A_2> = 0
    <Phi> = 0
    <c0> = 0
    <c0i> = 0
    <c1> = 0
    <c1i> = 0
    <Mu_ssd> = 0
    <Sigma_ssd> = 0
    <innerangle> = 0
    <outerangle> = 0
  <EndBdry>
  <BeginBdry>
    <BdryName> = "APr3"
    <BdryType> = 5
    <A_0> = 0
    <A_1> = 0
    <A_2> = 0
    <Phi> = 0
    <c0> = 0
    <c0i> = 0
    <c1> = 0
    <c1i> = 0
    <Mu_ssd> = 0
    <Sigma_ssd> = 0
    <innerangle> = 0
    <outerangle> = 0
  <EndBdry>
  <BeginBdry>
    <BdryName> = "APg1"
    <BdryType> = 5
    <A_0> = 0
    <A_1> = 0
    <A_2> = 0
    <Phi> = 0
    <c0> = 0
    <c0i> = 0
    <c1> = 0
    <c1i> = 0
    <Mu_ssd> = 0
    <Sigma_ssd> = 0
    <innerangle> = 0
    <outerangle> = 0
  <EndBdry>
  <BeginBdry>
    <BdryName> = "APg2"
    <BdryType> = 5
    <A_0> = 0
    <A_1> = 0
    <A_2> = 0
    <Phi> = 0
    <c0> = 0
    <c0i> = 0
    <c1> = 0
    <c1i> = 0
    <Mu_ssd> = 0
    <Sigma_ssd> = 0
    <innerangle> = 0
    <outerangle> = 0
  <EndBdry>
  <BeginBdry>
    <BdryName> = "APg3"
    <BdryType> = 5
    <A_0> = 0
    <A_1> = 0
    <A_2> = 0
    <Phi> = 0
    <c0> = 0
    <c0i> = 0
    <c1> = 0
    <c1i> = 0
    <Mu_ssd> = 0
    <Sigma_ssd> = 0
    <innerangle> = 0
    <outerangle> = 0
  <EndBdry>
  <BeginBdry>
    <BdryName> = "APs1"
    <BdryType> = 5
    <A_0> = 0
    <A_1> = 0
    <A_2> = 0
    <Phi> = 0
    <c0> = 0
    <c0i> = 0
    <c1> = 0
    <c1i> = 0
    <Mu_ssd> = 0
    <Sigma_ssd> = 0
    <innerangle> = 0
    <outerangle> = 0
  <EndBdry>
  <BeginBdry>
    <BdryName> = "APs2"
    <BdryType> = 5
    <A_0> = 0
    <A_1> = 0
    <A_2> = 0
    <Phi> = 0
    <c0> = 0
    <c0i> = 0
    <c1> = 0
    <c1i> = 0
    <Mu_ssd> = 0
    <Sigma_ssd> = 0
    <innerangle> = 0
    <outerangle> = 0
  <EndBdry>
  <BeginBdry>
    <BdryName> = "APs3"
    <BdryType> = 5
    <A_0> = 0
    <A_1> = 0
    <A_2> = 0
    <Phi> = 0
    <c0> = 0
    <c0i> = 0
    <c1> = 0
    <c1i> = 0
    <Mu_ssd> = 0
    <Sigma_ssd> = 0
    <innerangle> = 0
    <outerangle> = 0
  <EndBdry>
  <BeginBdry>
    <BdryName> = "AGap"
    <BdryType> = 7
    <A_0> = 0
    <A_1> = 0
    <A_2> = 0
    <Phi> = 0
    <c0> = 0
    <c0i> = 0
    <c1> = 0
    <c1i> = 0
    <Mu_ssd> = 0
    <Sigma_ssd> = 0
    <innerangle> = 0
    <outerangle> = 0
  <EndBdry>
[BlockProps]  = 9
  <BeginBlock>
    <BlockName> = "M270-35A"
    <Mu_x> = 1
    <Mu_y> = 1
    <H_c> = 0
    <H_cAngle> = 0
    <J_re> = 0
    <J_im> = 0
    <Sigma> = 0
    <d_lam> = 0
    <Phi_h> = 0
    <Phi_hx> = 0
    <Phi_hy> = 0
    <LamType> = 0
    <LamFill> = 1
    <NStrands> = 0
    <WireD> = 0
    <BHPoints> = 200
      0	0
      0.0045422769999999999	3.2767874890000002
      0.0090353559999999996	6.114592773
      0.013222249	8.4602422570000009
      0.017196487	10.462328400000001
      0.020991169	12.199266809999999
      0.024640190999999999	13.72982376
      0.028168996000000002	15.09561901
      0.031597466999999997	16.327217480000002
      0.034941272000000002	17.447599879999999
      0.038212956999999999	18.47443998
      0.041422729999999998	19.421601849999998
      0.044579012000000001	20.300151339999999
      0.047688851999999997	21.119056130000001
      0.050758219	21.885681389999998
      0.053792226999999998	22.60614816
      0.056795300999999999	23.285597330000002
      0.059771310000000001	23.928387470000001
      0.062723663999999998	24.538245379999999
      0.065655396000000005	25.11838217
      0.068569221	25.67158405
      0.071467592999999996	26.200284
      0.074352739000000001	26.70661905
      0.077226698999999996	27.19247648
      0.080091349000000006	27.65953137
      0.082948429000000004	28.109277410000001
      0.085799557999999998	28.54305239
      0.088646256000000007	28.96205934
      0.091489953999999998	29.36738437
      0.094332005999999996	29.760011540000001
      0.097173704999999999	30.140835630000002
      0.100016285	30.510672870000001
      0.102860934	30.870270300000001
      0.105708802	31.220313650000001
      0.108561001	31.561434299999998
      0.11141862	31.894215259999999
      0.114282722	32.21919639
      0.117154355	32.536878999999999
      0.120034552	32.847729870000002
      0.12292433699999999	33.152184810000001
      0.12582473199999999	33.45065185
      0.12873675200000001	33.743513989999997
      0.13166142	34.031131799999997
      0.13459976100000001	34.313845620000002
      0.137552811	34.591977620000002
      0.14052161499999999	34.865833639999998
      0.14350723800000001	35.135704879999999
      0.14651076099999999	35.401869419999997
      0.14953328699999999	35.664593680000003
      0.15257594699999999	35.924133650000002
      0.155639899	36.180736189999998
      0.158726334	36.434640119999997
      0.161836481	36.686077320000003
      0.16497160599999999	36.93527375
      0.16813302299999999	37.182450420000002
      0.17132209400000001	37.427824389999998
      0.17454023399999999	37.671609650000001
      0.17778891699999999	37.914018050000003
      0.18106968000000001	38.155260249999998
      0.18438413100000001	38.395546590000002
      0.18773395400000001	38.635088090000004
      0.191120915	38.87409736
      0.19454686800000001	39.112789630000002
      0.19801376800000001	39.351383830000003
      0.20152367299999999	39.590103640000002
      0.20507876	39.829178749999997
      0.208681327	40.068846100000002
      0.21233381500000001	40.309351300000003
      0.216038808	40.550950149999998
      0.21979905799999999	40.793910310000001
      0.22361749	41.038513199999997
      0.227497227	41.285056060000002
      0.2314416	41.53385428
      0.23545417299999999	41.785244059999997
      0.23953876299999999	42.039585369999998
      0.24369946200000001	42.297265359999997
      0.247940667	42.558702250000003
      0.25226710400000002	42.824349750000003
      0.25668386300000001	43.0947022
      0.26119642799999998	43.370300520000001
      0.26581071499999998	43.651739030000002
      0.27054201700000002	43.94020278
      0.275438138	44.23873004
      0.28051031599999998	44.548036490000001
      0.28576849199999999	44.868763260000001
      0.29122336399999998	45.201605100000002
      0.296886504	45.547319020000003
      0.30277045699999999	45.906731970000003
      0.30888884599999999	46.280749559999997
      0.31525650100000002	46.670366299999998
      0.321889598	47.076677459999999
      0.328805825	47.50089294
      0.33602457000000002	47.944353649999996
      0.34356714500000002	48.408550759999997
      0.351457032	48.895148689999999
      0.35972019	49.406012390000001
      0.36838539799999998	49.943240269999997
      0.37748466600000002	50.509203810000002
      0.38705371900000002	51.106595769999998
      0.39713256899999999	51.738489119999997
      0.40776619800000002	52.408409570000003
      0.41900536300000002	53.120425429999997
      0.43090757000000002	53.879259759999997
      0.44353822799999998	54.690431349999997
      0.45697202599999998	55.560433060000001
      0.47129457299999999	56.49695913
      0.486604327	57.509196449999997
      0.503014823	58.60819978
      0.520657166	59.807376320000003
      0.53968265500000001	61.123111049999999
      0.56026517099999995	62.575567960000001
      0.58260257699999995	64.189698669999999
      0.60691558199999995	65.996464399999994
      0.63344113800000001	68.034201780000004
      0.662415215	70.349880479999996
      0.69403682899999997	72.999622560000006
      0.72840307800000004	76.047204840000006
      0.76540934699999996	79.558509650000005
      0.80463064699999998	83.589963030000007
      0.84524547999999999	88.171938179999998
      0.88609953900000005	93.294734669999997
      0.92594964300000004	98.90894376
      0.963771241	104.9435902
      0.99893980100000002	111.3300564
      1.0312218310000001	118.0174305
      1.0606584889999999	124.9760964
      1.0874410889999999	132.19454709999999
      1.1118223309999999	139.6744898
      1.1340651580000001	147.42664859999999
      1.1544176930000001	155.46782519999999
      1.173103241	163.8190534
      1.1903180360000001	172.50453999999999
      1.2062325739999999	181.55112829999999
      1.220994358	190.98810510000001
      1.234730984	200.84723579999999
      1.2475531	211.16296399999999
      1.2595570490000001	221.97273730000001
      1.270827143	233.31744900000001
      1.281437594	245.2419931
      1.291454146	257.79594609999998
      1.3009354369999999	271.03439809999998
      1.309934159	285.01896390000002
      1.318498043	299.81902289999999
      1.326670706	315.51324579999999
      1.3344924010000001	332.19149570000002
      1.3420006879999999	349.95721329999998
      1.3492310569999999	368.93044570000001
      1.356217531	389.25173360000002
      1.362993272	411.08716509999999
      1.3695912379999999	434.63503709999998
      1.3760449050000001	460.1347695
      1.382389146	487.87903890000001
      1.3886613240000001	518.23060969999995
      1.394902732	551.64618570000005
      1.401160583	588.71104339999999
      1.4074908660000001	630.19074279999995
      1.4139626249999999	677.11087850000001
      1.420664664	730.8848299
      1.4277165590000001	793.52783980000004
      1.435287779	868.03580320000003
      1.4436331710000001	959.10175079999999
      1.453164339	1074.5891859999999
      1.464608755	1228.9034079999999
      1.479413587	1451.8548430000001
      1.5007295060000001	1812.597843
      1.531321148	2396.2922779999999
      1.5749716949999999	3340.7297119999998
      1.6351726849999999	4868.8615820000005
      1.6746062129999999	6056.7860730000002
      1.7053540309999999	7126.7301200000002
      1.7307497590000001	8135.9466300000004
      1.752580204	9119.3875740000003
      1.771845345	10098.25848
      1.789165838	11087.22133
      1.804957089	12097.58993
      1.819514077	13138.977849999999
      1.8330565510000001	14220.25051
      1.845754994	15350.15127
      1.8577465099999999	16537.778849999999
      1.869145125	17793.012470000001
      1.8800488470000001	19126.948680000001
      1.8905448170000001	20552.403480000001
      1.9007133519999999	22084.53774
      1.9106314310000001	23741.68173
      1.920376064	25546.46932
      1.930027954	27527.455720000002
      1.9396760099999999	29721.505959999999
      1.9494234969999999	32177.45292
      1.959397184	34961.935420000002
      1.969762051	38169.180130000001
      1.980746793	41938.394229999998
      1.9926918389999999	46487.096960000003
      2.0061495709999999	52181.595710000001
      2.022124024	59707.652569999998
      2.042772002	70576.241299999994
      2.0725625070000002	88161.987269999998
      2.1158769670000002	116616.322
      2.1803765140000002	162656.4026
      2.2792825830000001	237150.818
      2.3747656959999999	310949.48619999998
  <EndBlock>
  <BeginBlock>
    <BlockName> = "ShaftAir"
    <Mu_x> = 1
    <Mu_y> = 1
    <H_c> = 0
    <H_cAngle> = 0
    <J_re> = 0
    <J_im> = 0
    <Sigma> = 0
    <d_lam> = 0
    <Phi_h> = 0
    <Phi_hx> = 0
    <Phi_hy> = 0
    <LamType> = 0
    <LamFill> = 1
    <NStrands> = 0
    <WireD> = 0
    <BHPoints> = 3
      -100	-7.9577471545947675e-011
      0	0
      100	7.9577471545947675e-011
  <EndBlock>
  <BeginBlock>
    <BlockName> = "Copper"
    <Mu_x> = 1
    <Mu_y> = 1
    <H_c> = 0
    <H_cAngle> = 0
    <J_re> = 0
    <J_im> = 0
    <Sigma> = 58
    <d_lam> = 0
    <Phi_h> = 0
    <Phi_hx> = 0
    <Phi_hy> = 0
    <LamType> = 0
    <LamFill> = 1
    <NStrands> = 0
    <WireD> = 0
    <BHPoints> = 0
  <EndBlock>
  <BeginBlock>
    <BlockName> = "Aluminium"
    <Mu_x> = 1
    <Mu_y> = 1
    <H_c> = 0
    <H_cAngle> = 0
    <J_re> = 0
    <J_im> = 0
    <Sigma> = 29
    <d_lam> = 0
    <Phi_h> = 0
    <Phi_hx> = 0
    <Phi_hy> = 0
    <LamType> = 0
    <LamFill> = 1
    <NStrands> = 0
    <WireD> = 0
    <BHPoints> = 0
  <EndBlock>
  <BeginBlock>
    <BlockName> = "BMH-38EH"
    <Mu_x> = 1.05
    <Mu_y> = 1.05
    <H_c> = 954929.65855137201
    <H_cAngle> = 0
    <J_re> = 0
    <J_im> = 0
    <Sigma> = 0.66666666666666663
    <d_lam> = 0
    <Phi_h> = 0
    <Phi_hx> = 0
    <Phi_hy> = 0
    <LamType> = 0
    <LamFill> = 1
    <NStrands> = 0
    <WireD> = 0
    <BHPoints> = 0
  <EndBlock>
  <BeginBlock>
    <BlockName> = "DW235"
    <Mu_x> = 1
    <Mu_y> = 1
    <H_c> = 0
    <H_cAngle> = 0
    <J_re> = 0
    <J_im> = 0
    <Sigma> = 0
    <d_lam> = 0
    <Phi_h> = 0
    <Phi_hx> = 0
    <Phi_hy> = 0
    <LamType> = 0
    <LamFill> = 1
    <NStrands> = 0
    <WireD> = 0
    <BHPoints> = 0
  <EndBlock>
  <BeginBlock>
    <BlockName> = "Air"
    <Mu_x> = 1
    <Mu_y> = 1
    <H_c> = 0
    <H_cAngle> = 0
    <J_re> = 0
    <J_im> = 0
    <Sigma> = 0
    <d_lam> = 0
    <Phi_h> = 0
    <Phi_hx> = 0
    <Phi_hy> = 0
    <LamType> = 0
    <LamFill> = 1
    <NStrands> = 0
    <WireD> = 0
    <BHPoints> = 0
  <EndBlock>
  <BeginBlock>
    <BlockName> = "BMH-38EH_1"
    <Mu_x> = 1.05
    <Mu_y> = 1.05
    <H_c> = 954929.65855137201
    <H_cAngle> = 0
    <J_re> = 0
    <J_im> = 0
    <Sigma> = 0.66666666666666663
    <d_lam> = 0
    <Phi_h> = 0
    <Phi_hx> = 0
    <Phi_hy> = 0
    <LamType> = 0
    <LamFill> = 1
    <NStrands> = 0
    <WireD> = 0
    <BHPoints> = 0
  <EndBlock>
  <BeginBlock>
    <BlockName> = "BMH-38EH_2"
    <Mu_x> = 1.05
    <Mu_y> = 1.05
    <H_c> = 954929.65855137201
    <H_cAngle> = 0
    <J_re> = 0
    <J_im> = 0
    <Sigma> = 0.66666666666666663
    <d_lam> = 0
    <Phi_h> = 0
    <Phi_hx> = 0
    <Phi_hy> = 0
    <LamType> = 0
    <LamFill> = 1
    <NStrands> = 0
    <WireD> = 0
    <BHPoints> = 0
  <EndBlock>
[CircuitProps]  = 6
  <BeginCircuit>
    <CircuitName> = "fase1"
    <TotalAmps_re> = 0
    <TotalAmps_im> = 0
    <CircuitType> = 1
  <EndCircuit>
  <BeginCircuit>
    <CircuitName> = "fase2"
    <TotalAmps_re> = 0
    <TotalAmps_im> = 0
    <CircuitType> = 1
  <EndCircuit>
  <BeginCircuit>
    <CircuitName> = "fase3"
    <TotalAmps_re> = 0
    <TotalAmps_im> = 0
    <CircuitType> = 1
  <EndCircuit>
  <BeginCircuit>
    <CircuitName> = "fase1n"
    <TotalAmps_re> = 0
    <TotalAmps_im> = 0
    <CircuitType> = 1
  <EndCircuit>
  <BeginCircuit>
    <CircuitName> = "fase2n"
    <TotalAmps_re> = 0
    <TotalAmps_im> = 0
    <CircuitType> = 1
  <EndCircuit>
  <BeginCircuit>
    <CircuitName> = "fase3n"
    <TotalAmps_re> = 0
    <TotalAmps_im> = 0
    <CircuitType> = 1
  <EndCircuit>
[NumPoints] = 145
3798.8555110455763	93.256668387066696	0	2
3778.9615045535215	92.768297939460737	0	2
3795.4227335796554	186.45716244418847	0	20
3775.5467040011722	185.48071572507283	0	2
3795.8689361763336	177.14124130633752	0	2
3775.9905699053043	176.21358059528589	0	2
3800.0000000000005	0	0	20
3780.0999999999999	0	0	2
3799.9885545416573	9.326593826549086	0	2
3780.088614479715	9.2777519272995335	0	2
3600	0	0	2
3595.6636423386208	176.64362757870487	0	2
0	0	0	2
4000	0	0	1
3810	0	0	20
3995.1818248206896	196.27069730967207	0	1
3805.4106881417069	186.94783918746265	0	20
3843.3101785484532	13.338333843788577	0	1
3843.3179706010915	10.481049855490035	0	1
3843.4083137889102	13.708615756952163	0	1
3948.2672603527749	13.994574882670335	0	1
3948.4131538615702	13.849534223789512	0	1
3948.4228178454828	10.767679572949984	0	1
3948.4299628315748	7.6858180525925155	0	1
3948.2848625629344	7.5399838293196026	0	1
3843.4259159990697	7.2540247036014307	0	1
3843.3257626537297	7.6237658671914925	0	1
3809.9769691641886	13.24743139125345	0	1
3809.9925532694651	7.5328634146563651	0	1
3843.1802647236659	34.300036769732763	0	1
3843.2036406497846	31.442837779121568	0	1
3843.2763789399405	34.670848417426768	0	1
3948.1322061891024	35.52871728794895	0	1
3948.2788885980526	35.384474508089298	0	1
3948.3053612644885	32.302718404920505	0	1
3948.3293150080376	29.220941693402253	0	1
3948.185012295954	29.07431824397306	0	1
3843.3291850467926	28.216449373450875	0	1
3843.2270165759037	28.58563878851038	0	1
3809.8480469264196	34.027332116268198	0	1
3809.8947987786578	28.312934135045808	0	1
3842.9360250440081	55.260719347747461	0	1
3842.9749841482276	52.403690349982483	0	1
3843.0301153769215	55.632049699170388	0	1
3947.8797040894692	57.061802794852632	0	1
3948.0271710351076	56.918362184908133	0	1
3948.0704515965645	53.836796304631314	0	1
3948.111213385002	50.755196077786557	0	1
3947.9677125221524	50.607787763914573	0	1
3843.1181238096046	49.178034668232328	0	1
3843.0139432524466	49.546661352217498	0	1
3809.6057903913002	54.806220605695437	0	1
3809.683708599739	49.092162610165474	0	1
3842.5774667750538	76.219758045292068	0	1
3842.6320078984286	73.362984030475261	0	1
3842.6695304256332	76.591596054212161	0	1
3947.5097615652385	78.593190843158055	0	1
3947.6580086607592	78.450556670159983	0	1
3947.7180958297395	75.369272682337666	0	1
3947.7756644504948	72.287940610750667	0	1
3947.6329697057026	72.139751817497313	0	1
3842.7927385660973	70.138157028551419	0	1
3842.6865490218038	70.506210015658453	0	1
3809.2502067654109	75.583478734954426	0	1
3809.3592890121613	69.869930705320826	0	1
3842.1046005830945	97.176529378727693	0	1
3842.174722103151	94.32009532937586	0	1
3842.1946348126553	97.548863983811572	0	1
3947.0223896213565	100.12224092313747	0	1
3947.1714124567466	99.980417430127432	0	1
3947.248304445794	96.899506995936477	0	1
3947.3226781863318	93.818534742214496	0	1
3947.1807938044408	93.669569877858677	0	1
3842.3530389957396	91.096192938532781	0	1
3842.2448436232071	91.463661280024041	0	1
3808.7813066265544	96.358488427963962	0	1
3808.921549666667	90.645620329260296	0	1
3841.5174405348212	118.13040993186439	0	1
3841.6031403656038	115.27440082038115	0	1
3841.6054426650512	118.50323005700602	0	1
3946.4176027560288	121.64831259461229	0	1
3946.5673968981973	121.507304000516	0	1
3946.6610914199505	118.42685877002093	0	1
3946.7522680678217	115.34633798606747	0	1
3946.6111982695688	115.19660148197443	0	1
3841.7990381785912	112.05151894436815	0	1
3841.6888401963865	112.4183917088979	0	1
3808.1991039234408	117.13063167552865	0	1
3808.3705035850062	111.41861345256214	0	1
3840.8160040969074	139.08077637450629	0	1
3840.9172796890421	136.22527716065429	0	1
3840.9019715099435	139.4540709291565	0	1
3945.6954189602848	143.17076550600481	0	1
3945.8459799531993	143.03057600550665	0	1
3945.9564742204589	139.95068761493323	0	1
3946.0644510633661	136.87070993922154	0	1
3945.9242000452559	136.72020624971105	0	1
3841.1307525949146	133.00351167286274	0	1
3841.0185552811758	133.36977794680226	0	1
3807.5036159752735	137.89929055372329	0	1
3807.7061671595416	132.18829212601929	0	1
3840.0003121354898	160.02700548099432	0	1
3840.1171604762567	157.17210110936793	0	1
3840.084242273997	160.40076336049086	0	1
3944.8558597174483	164.68895941338729	0	1
3945.0071830822608	164.54959317680539	0	1
3945.1344738080752	161.47035324581466	0	1
3945.2592476339528	158.39101030066186	0	1
3945.1198195681341	158.23974390287569	0	1
3840.3482021246828	153.95154784997925	0	1
3840.2340088170245	154.31719673774154	0	1
3806.6948634712348	158.66384724227487	0	1
3806.9285601527695	152.95403849902212	0	1
3839.0703889155438	180.96847414874574	0	1
3839.2028065289733	178.11424954624414	0	1
3839.1522792827927	181.34268423464343	0	1
3943.8989500024932	186.20225419952754	0	1
3944.0510312376791	186.06371537268981	0	1
3944.195114635439	182.98521550165259	0	1
3944.33668173255	179.90659889049397	0	1
3944.1980807666901	179.75457428426276	0	1
3839.4514100469892	174.89500431937864	0	1
3839.3352241424022	175.26002494374256	0	1
3805.7728704698684	179.42368404294101	0	1
3806.0377056967268	173.71523483793783	0	1
3999.9405045576864	21.816507484055371	0	1
3809.9433305911962	20.780223378562741	0	1
3999.762020000599	43.632365976729496	0	1
3809.7733240505704	41.559828592834847	0	1
3999.464551638247	65.446926505947118	0	1
3809.4899854354303	62.338197496914631	0	1
3999.0481083196364	87.259540138244475	0	1
3809.0933231744539	83.114711981677871	0	1
3998.5127024330068	109.06955799807353	0	1
3808.583349067439	103.88875399316504	0	1
3997.8583499054625	130.87633128710456	0	1
3807.9600782849534	124.6597055509671	0	1
3997.0850702025009	152.67921130352644	0	1
3807.2235293678823	145.42694876660892	0	1
3996.1928863274311	174.47754946134401	0	1
3806.373724226878	166.18986586193017	0	1
3806.6666666666665	0	0	20
3802.081369954356	186.78428027303789	0	20
3803.3333333333335	0	0	20
3798.7520517670059	186.6207213586132	0	20
[NumSegments] = 122
0	1	2.604166666666667	0	0	2
3	2	-1	4	0	2
5	4	2.604166666666667	0	0	2
7	6	-1	4	0	2
9	8	2.604166666666667	0	0	2
7	10	-1	3	0	2
11	3	-1	3	0	2
10	12	-1	2	0	2
12	11	-1	2	0	2
13	14	-1	10	0	1
16	15	-1	10	0	1
17	18	2.604166666666667	0	0	1
19	17	2.604166666666667	0	0	1
20	19	2.604166666666667	0	0	1
22	21	2.604166666666667	0	0	1
23	22	2.604166666666667	0	0	1
25	24	2.604166666666667	0	0	1
26	25	2.604166666666667	0	0	1
18	26	2.604166666666667	0	0	1
22	18	2.604166666666667	0	0	1
17	27	2.604166666666667	0	0	1
28	26	2.604166666666667	0	0	1
29	30	2.604166666666667	0	0	1
31	29	2.604166666666667	0	0	1
32	31	2.604166666666667	0	0	1
34	33	2.604166666666667	0	0	1
35	34	2.604166666666667	0	0	1
37	36	2.604166666666667	0	0	1
38	37	2.604166666666667	0	0	1
30	38	2.604166666666667	0	0	1
34	30	2.604166666666667	0	0	1
29	39	2.604166666666667	0	0	1
40	38	2.604166666666667	0	0	1
41	42	2.604166666666667	0	0	1
43	41	2.604166666666667	0	0	1
44	43	2.604166666666667	0	0	1
46	45	2.604166666666667	0	0	1
47	46	2.604166666666667	0	0	1
49	48	2.604166666666667	0	0	1
50	49	2.604166666666667	0	0	1
42	50	2.604166666666667	0	0	1
46	42	2.604166666666667	0	0	1
41	51	2.604166666666667	0	0	1
52	50	2.604166666666667	0	0	1
53	54	2.604166666666667	0	0	1
55	53	2.604166666666667	0	0	1
56	55	2.604166666666667	0	0	1
58	57	2.604166666666667	0	0	1
59	58	2.604166666666667	0	0	1
61	60	2.604166666666667	0	0	1
62	61	2.604166666666667	0	0	1
54	62	2.604166666666667	0	0	1
58	54	2.604166666666667	0	0	1
53	63	2.604166666666667	0	0	1
64	62	2.604166666666667	0	0	1
65	66	2.604166666666667	0	0	1
67	65	2.604166666666667	0	0	1
68	67	2.604166666666667	0	0	1
70	69	2.604166666666667	0	0	1
71	70	2.604166666666667	0	0	1
73	72	2.604166666666667	0	0	1
74	73	2.604166666666667	0	0	1
66	74	2.604166666666667	0	0	1
70	66	2.604166666666667	0	0	1
65	75	2.604166666666667	0	0	1
76	74	2.604166666666667	0	0	1
77	78	2.604166666666667	0	0	1
79	77	2.604166666666667	0	0	1
80	79	2.604166666666667	0	0	1
82	81	2.604166666666667	0	0	1
83	82	2.604166666666667	0	0	1
85	84	2.604166666666667	0	0	1
86	85	2.604166666666667	0	0	1
78	86	2.604166666666667	0	0	1
82	78	2.604166666666667	0	0	1
77	87	2.604166666666667	0	0	1
88	86	2.604166666666667	0	0	1
89	90	2.604166666666667	0	0	1
91	89	2.604166666666667	0	0	1
92	91	2.604166666666667	0	0	1
94	93	2.604166666666667	0	0	1
95	94	2.604166666666667	0	0	1
97	96	2.604166666666667	0	0	1
98	97	2.604166666666667	0	0	1
90	98	2.604166666666667	0	0	1
94	90	2.604166666666667	0	0	1
89	99	2.604166666666667	0	0	1
100	98	2.604166666666667	0	0	1
101	102	2.604166666666667	0	0	1
103	101	2.604166666666667	0	0	1
104	103	2.604166666666667	0	0	1
106	105	2.604166666666667	0	0	1
107	106	2.604166666666667	0	0	1
109	108	2.604166666666667	0	0	1
110	109	2.604166666666667	0	0	1
102	110	2.604166666666667	0	0	1
106	102	2.604166666666667	0	0	1
101	111	2.604166666666667	0	0	1
112	110	2.604166666666667	0	0	1
113	114	2.604166666666667	0	0	1
115	113	2.604166666666667	0	0	1
116	115	2.604166666666667	0	0	1
118	117	2.604166666666667	0	0	1
119	118	2.604166666666667	0	0	1
121	120	2.604166666666667	0	0	1
122	121	2.604166666666667	0	0	1
114	122	2.604166666666667	0	0	1
118	114	2.604166666666667	0	0	1
113	123	2.604166666666667	0	0	1
124	122	2.604166666666667	0	0	1
125	126	2.604166666666667	0	0	1
127	128	2.604166666666667	0	0	1
129	130	2.604166666666667	0	0	1
131	132	2.604166666666667	0	0	1
133	134	2.604166666666667	0	0	1
135	136	2.604166666666667	0	0	1
137	138	2.604166666666667	0	0	1
139	140	2.604166666666667	0	0	1
141	14	0.26041666666666669	7	0	20
142	16	0.26041666666666669	7	0	20
143	6	0.26041666666666669	5	0	20
144	2	0.26041666666666669	5	0	20
[NumArcSegments] = 65
0	4	1.265625	0.0098162999439933962	0	0	2	1
1	5	1.2656250000000002	0.009867976981339904	0	0	2	1
4	2	0.14062499999999969	0.0098162999439902546	0	0	2	1
5	3	0.14062499999999925	0.009867976981339904	0	0	2	1
6	8	0.14062499999999964	0.0098162999439902546	0	0	2	1
7	9	0.14062499999999978	0.009867976981339904	0	0	2	1
8	0	1.2656250000000002	0.0098162999439933944	0	0	2	1
9	1	1.265625	0.0098679769813399074	0	0	2	1
10	11	2.8125	0.010361649940878605	0	0	2	1
13	125	0.31250000000000011	2.604166666666667	1	0	1	1
14	28	0.11328124999999997	0.0097905353772081306	0	0	1	1
21	20	89.976585101859342	10	0	0	1	1
24	23	89.976585101626526	10	0	0	1	1
27	126	0.11328125000000004	0.0097905353772081306	0	0	1	1
28	27	0.085937499999999986	0.0097905353772081306	0	0	1	1
33	32	89.976585101710668	10	0	0	1	1
36	35	89.976585101773779	10	0	0	1	1
39	128	0.11328125000000017	0.0097905353772081306	0	0	1	1
40	39	0.085937500000000042	0.0097905353772081306	0	0	1	1
45	44	89.976585101899317	10	0	0	1	1
48	47	89.976585101765039	10	0	0	1	1
51	130	0.1132812500000001	0.0097905353772081306	0	0	1	1
52	51	0.085937500000000042	0.0097905353772081306	0	0	1	1
57	56	89.976585101819865	10	0	0	1	1
60	59	89.976585101655431	10	0	0	1	1
63	132	0.11328125000000024	0.0097905353772081306	0	0	1	1
64	63	0.08593749999999975	0.0097905353772081306	0	0	1	1
69	68	89.976585101987212	10	0	0	1	1
72	71	89.976585101488595	10	0	0	1	1
75	134	0.11328125000000004	0.0097905353772081306	0	0	1	1
76	75	0.085937499999999944	0.0097905353772081306	0	0	1	1
81	80	89.97658510156981	10	0	0	1	1
84	83	89.976585101555003	10	0	0	1	1
87	136	0.11328125000000025	0.0097905353772081306	0	0	1	1
88	87	0.085937500000000139	0.0097905353772081306	0	0	1	1
93	92	89.976585101906551	10	0	0	1	1
96	95	89.976585101569853	10	0	0	1	1
99	138	0.11328125000000004	0.0097905353772081306	0	0	1	1
100	99	0.085937499999999528	0.0097905353772081306	0	0	1	1
105	104	89.976585101734869	10	0	0	1	1
108	107	89.97658510157413	10	0	0	1	1
111	140	0.11328125000000043	0.0097905353772081306	0	0	1	1
112	111	0.085937499999999528	0.0097905353772081306	0	0	1	1
117	116	89.976585101933594	10	0	0	1	1
120	119	89.976585101552175	10	0	0	1	1
123	16	0.11328125000000004	0.0097905353772081306	0	0	1	1
124	123	0.085937500000000333	0.0097905353772081306	0	0	1	1
125	127	0.31250000000000017	2.604166666666667	1	0	1	1
126	40	0.11328124999999997	0.0097905353772081306	0	0	1	1
127	129	0.31249999999999989	2.604166666666667	1	0	1	1
128	52	0.11328124999999972	0.0097905353772081306	0	0	1	1
129	131	0.31250000000000022	2.604166666666667	1	0	1	1
130	64	0.11328124999999981	0.0097905353772081306	0	0	1	1
131	133	0.31250000000000011	2.604166666666667	1	0	1	1
132	76	0.11328125000000004	0.0097905353772081306	0	0	1	1
133	135	0.31250000000000011	2.604166666666667	1	0	1	1
134	88	0.11328125000000024	0.0097905353772081306	0	0	1	1
135	137	0.31250000000000072	2.604166666666667	1	0	1	1
136	100	0.11328124999999961	0.0097905353772081306	0	0	1	1
137	139	0.31250000000000028	2.604166666666667	1	0	1	1
138	112	0.11328125000000043	0.0097905353772081306	0	0	1	1
139	15	0.31250000000000028	2.604166666666667	1	0	1	1
140	124	0.11328124999999964	0.0097905353772081306	0	0	1	1
141	142	2.8125	0.26041666666666669	11	0	20	1
143	144	2.8125	0.26041666666666669	11	0	20	1
[NumHoles] = 0
[NumBlockLabels] = 44
3787.6501454738673	134.85317197527638	8	2.604166666666667	0	-178.59375000000006	201	1	0
3789.7046865186612	51.160448380548445	9	2.604166666666667	0	-178.59375000000003	202	1	0
3785.7072359156164	181.32317501772116	7	2.604166666666667	0	0	2	1	0
3790.044292255343	4.6510864384621584	7	2.604166666666667	0	0	2	1	0
3688.9386259299285	90.558360310972489	1	2.604166666666667	0	0	22	1	0
1799.4578736531676	44.17421134124212	7	2.604166666666667	0	0	2	1	0
3895.866191980786	12.165293757019258	3	2.604166666666667	1	0	1	1	0
3895.8745964657878	9.0834356714207605	3	2.604166666666667	1	0	1	1	0
3826.6519016112748	10.435600090127533	7	2.604166666666667	0	0	10	1	0
3974.2039719786253	10.83798693858262	1	2.604166666666667	0	0	12	1	0
3895.74189435464	33.413661295692798	3	2.604166666666667	1	0	1	1	0
3895.7671075596327	30.331894888349275	3	2.604166666666667	1	0	1	1	0
3826.5380674375415	31.306489835061015	7	2.604166666666667	0	0	10	1	0
3974.0857484670469	32.513638410334508	1	2.604166666666667	0	0	12	1	0
3895.5017072849223	54.661034854087291	3	2.604166666666667	1	0	1	1	0
3895.5437284598693	51.579451800526492	3	2.604166666666667	1	0	1	1	0
3826.3104024763816	52.176448283264484	7	2.604166666666667	0	0	10	1	0
3973.8493049607691	54.188322675437185	1	2.604166666666667	0	0	12	1	0
3895.1456379166502	75.906782371258785	3	2.604166666666667	3	0	1	-1	0
3895.2044658115174	72.825474341554127	3	2.604166666666667	3	0	1	-1	0
3825.9689135003096	73.044854601033464	7	2.604166666666667	0	0	10	1	0
3973.494648493448	75.861394961426925	1	2.604166666666667	0	0	12	1	0
3894.673696842076	97.15027183463441	3	2.604166666666667	3	0	1	-1	0
3894.7493297068681	94.069330490677928	3	2.604166666666667	3	0	1	-1	0
3825.5136106678442	93.911088000835832	7	2.604166666666667	0	0	10	1	0
3973.0217896153054	97.532210543792814	1	2.604166666666667	0	0	12	1	0
3894.0858981003712	118.39087129881318	3	2.604166666666667	3	0	1	-1	0
3894.1783336851827	115.31038829158891	3	2.604166666666667	3	0	1	-1	0
3824.9445075232065	114.77452775977882	7	2.604166666666667	0	0	10	1	0
3972.4307423928153	119.20012476515564	1	2.604166666666667	0	0	12	1	0