[Format]      =  4.0
[Frequency]   =  0
[Precision]   =  1e-008
[MinAngle]    =  15
[DoSmartMesh] =  1
[Depth]       =  110
[LengthUnits] =  millimeters
[ProblemType] =  planar
[Coordinates] =  cartesian
[ACSolver]    =  0
[PrevType]    =  0
[PrevSoln]    =  ""
[Comment]     =  "Add comments here."
[PointProps]   = 0
[BdryProps]   = 11
  <BeginBdry>
    <BdryName> = "A=0"
    <BdryType> = 0
    <A_0> = 0
    <A_1> = 0
    <A_2> = 0
    <Phi> = 0
    <c0> = 0
    <c0i> = 0
    <c1> = 0
    <c1i> = 0
    <Mu_ssd> = 0
    <Sigma_ssd> = 0
    <innerangle> = 0
    <outerangle> = 0
  <EndBdry>
  <BeginBdry>
    <BdryName> = "APr1"
    <BdryType> = 5
    <A_0> = 0
    <A_1> = 0
    <A_2> = 0
    <Phi> = 0
    <c0> = 0
    <c0i> = 0
    <c1> = 0
    <c1i> = 0
    <Mu_ssd> = 0
    <Sigma_ssd> = 0
    <innerangle> = 0
    <outerangle> = 0
  <EndBdry>
  <BeginBdry>
    <BdryName> = "APr2"
    <BdryType> = 5
    <A_0> = 0
    <A_1> = 0
    <A_2> = 0
    <Phi> = 0
    <c0> = 0
    <c0i> = 0
    <c1> = 0
    <c1i> = 0
    <Mu_ssd> = 0
    <Sigma_ssd> = 0
    <innerangle> = 0
    <outerangle> = 0
  <EndBdry>
  <BeginBdry>
    <BdryName> = "APr3"
    <BdryType> = 5
    <A_0> = 0
    <A_1> = 0
    <A_2> = 0
    <Phi> = 0
    <c0> = 0
    <c0i> = 0
    <c1> = 0
    <c1i> = 0
    <Mu_ssd> = 0
    <Sigma_ssd> = 0
    <innerangle> = 0
    <outerangle> = 0
  <EndBdry>
  <BeginBdry>
    <BdryName> = "APg1"
    <BdryType> = 5
    <A_0> = 0
    <A_1> = 0
    <A_2> = 0
    <Phi> = 0
    <c0> = 0
    <c0i> = 0
    <c1> = 0
    <c1i> = 0
    <Mu_ssd> = 0
    <Sigma_ssd> = 0
    <innerangle> = 0
    <outerangle> = 0
  <EndBdry>
  <BeginBdry>
    <BdryName> = "APg2"
    <BdryType> = 5
    <A_0> = 0
    <A_1> = 0
    <A_2> = 0
    <Phi> = 0
    <c0> = 0
    <c0i> = 0
    <c1> = 0
    <c1i> = 0
    <Mu_ssd> = 0
    <Sigma_ssd> = 0
    <innerangle> = 0
    <outerangle> = 0
  <EndBdry>
  <BeginBdry>
    <BdryName> = "APg3"
    <BdryType> = 5
    <A_0> = 0
    <A_1> = 0
    <A_2> = 0
    <Phi> = 0
    <c0> = 0
    <c0i> = 0
    <c1> = 0
    <c1i> = 0
    <Mu_ssd> = 0
    <Sigma_ssd> = 0
    <innerangle> = 0
    <outerangle> = 0
  <EndBdry>
  <BeginBdry>
    <BdryName> = "APs1"
    <BdryType> = 5
    <A_0> = 0
    <A_1> = 0
    <A_2> = 0
    <Phi> = 0
    <c0> = 0
    <c0i> = 0
    <c1> = 0
    <c1i> = 0
    <Mu_ssd> = 0
    <Sigma_ssd> = 0
    <innerangle> = 0
    <outerangle> = 0
  <EndBdry>
  <BeginBdry>
    <BdryName> = "APs2"
    <BdryType> = 5
    <A_0> = 0
    <A_1> = 0
    <A_2> = 0
    <Phi> = 0
    <c0> = 0
    <c0i> = 0
    <c1> = 0
    <c1i> = 0
    <Mu_ssd> = 0
    <Sigma_ssd> = 0
    <innerangle> = 0
    <outerangle> = 0
  <EndBdry>
  <BeginBdry>
    <BdryName> = "APs3"
    <BdryType> = 5
    <A_0> = 0
    <A_1> = 0
    <A_2> = 0
    <Phi> = 0
    <c0> = 0
    <c0i> = 0
    <c1> = 0
    <c1i> = 0
    <Mu_ssd> = 0
    <Sigma_ssd> = 0
    <innerangle> = 0
    <outerangle> = 0
  <EndBdry>
  <BeginBdry>
    <BdryName> = "AGap"
    <BdryType> = 7
    <A_0> = 0
    <A_1> = 0
    <A_2> = 0
    <Phi> = 0
    <c0> = 0
    <c0i> = 0
    <c1> = 0
    <c1i> = 0
    <Mu_ssd> = 0
    <Sigma_ssd> = 0
    <innerangle> = 8.3333333333333339
    <outerangle> = 0
  <EndBdry>
[BlockProps]  = 7
  <BeginBlock>
    <BlockName> = "M600-50A"
    <Mu_x> = 1
    <Mu_y> = 1
    <H_c> = 0
    <H_cAngle> = 0
    <J_re> = 0
    <J_im> = 0
    <Sigma> = 0
    <d_lam> = 0
    <Phi_h> = 0
    <Phi_hx> = 0
    <Phi_hy> = 0
    <LamType> = 0
    <LamFill> = 1
    <NStrands> = 0
    <WireD> = 0
    <BHPoints> = 208
      0	0
      0.0061294119999999999	8.2635015680000006
      0.012398954	15.54584049
      0.018188152999999999	21.42337126
      0.023698273999999998	26.396066560000001
      0.028962854999999999	30.670770340000001
      0.034031080999999998	34.409892589999998
      0.038937833999999998	37.72521158
      0.043710287	40.697869570000002
      0.048369641999999997	43.388214720000001
      0.052932743999999997	45.842257519999997
      0.057413198999999998	48.095830579999998
      0.061822165999999998	50.17736026
      0.066168929000000001	52.109762629999999
      0.070461307000000001	53.911772880000001
      0.074705967999999998	55.598898519999999
      0.078908651999999996	57.184116670000002
      0.083074354000000003	58.67839326
      0.087207454000000004	60.091076020000003
      0.091311829999999997	61.430196219999999
      0.095390935999999996	62.702703470000003
      0.099447875000000005	63.914650479999999
      0.10348545000000001	65.071340269999993
      0.107506212	66.177444339999994
      0.111512495	67.237098649999993
      0.115506446	68.253982050000005
      0.119490053	69.231381029999994
      0.123465163	70.172243330000001
      0.127433505	71.079222909999999
      0.131396704	71.954717669999994
      0.13535628999999999	72.800901379999999
      0.139313718	73.619750830000001
      0.14327037200000001	74.413069070000006
      0.147227575	75.182505329999998
      0.151186599	75.929572239999999
      0.15514867099999999	76.655660710000006
      0.15911497799999999	77.362052919999996
      0.16308667299999999	78.049933670000001
      0.167064883	78.720400249999997
      0.171050709	79.374471249999999
      0.17504523399999999	80.013094219999999
      0.17904952399999999	80.637152520000001
      0.183064634	81.247471390000001
      0.18709161099999999	81.844823349999999
      0.19113149500000001	82.429933079999998
      0.19518532499999999	83.003481679999993
      0.19925414	83.566110629999997
      0.203338983	84.118425299999998
      0.20744090200000001	84.6609981
      0.21156095499999999	85.194371430000004
      0.21570021	85.719060249999998
      0.21985974999999999	86.23555451
      0.224040674	86.744321339999999
      0.228244101	87.245807119999995
      0.232471172	87.740439260000002
      0.23672305199999999	88.228628009999994
      0.241000933	88.710768049999999
      0.245306038	89.187239969999993
      0.249639624	89.658411700000002
      0.25400298399999999	90.124639849999994
      0.258397449	90.586270990000003
      0.26282439699999999	91.043642790000007
      0.267285249	91.497085290000001
      0.27178147899999999	91.946921900000007
      0.27631461499999999	92.393470609999994
      0.28088624499999998	92.837044969999994
      0.28549801899999999	93.277955219999996
      0.29015165799999998	93.716509279999997
      0.294848956	94.153013889999997
      0.299591787	94.587775629999996
      0.30438211199999998	95.021102040000002
      0.30922198299999998	95.45330276
      0.31411355600000002	95.884690719999995
      0.31905909100000002	96.315583349999997
      0.324060968	96.746303900000001
      0.32912169099999999	97.177182860000002
      0.33424390300000001	97.608559369999995
      0.33943039400000002	98.040782919999998
      0.34468411100000002	98.474215020000003
      0.35000818	98.909231149999997
      0.35540591100000002	99.346222819999994
      0.36088082199999999	99.785599880000007
      0.366436651	100.2277931
      0.37207738099999998	100.67325700000001
      0.37780725700000001	101.1224732
      0.38363081700000001	101.57595360000001
      0.389552911	102.03424510000001
      0.39557873700000001	102.4979336
      0.401713873	102.9676498
      0.40796431599999999	103.44407510000001
      0.41433652900000001	103.9279489
      0.420837509	104.4200783
      0.42747497499999998	104.9213567
      0.43425898400000001	105.43288579999999
      0.44146202099999998	105.9749185
      0.44856258700000001	106.5079061
      0.45587690400000003	107.05707719999999
      0.46342101400000002	107.62377619999999
      0.47120716099999999	108.2090887
      0.47924850299999999	108.8142005
      0.48755929799999997	109.4404164
      0.496155022	110.0891769
      0.50505251799999995	110.7620768
      0.51427015700000001	111.4608879
      0.52382802100000003	112.1875854
      0.53374812500000002	112.944379
      0.54405466000000002	113.73375040000001
      0.55477427700000004	114.558498
      0.56593642099999997	115.4217907
      0.57757370900000005	116.3272333
      0.58972237000000005	117.2789456
      0.60242275199999995	118.28165920000001
      0.61571989900000001	119.3408371
      0.62966422099999997	120.4628209
      0.64431222899999996	121.65501310000001
      0.65972736300000001	122.92610569999999
      0.67598086099999999	124.28636400000001
      0.69315263800000004	125.74798269999999
      0.71133206000000004	127.3255305
      0.73061842099999996	129.03650049999999
      0.75112078999999998	130.90198509999999
      0.772956635	132.94748089999999
      0.79624826999999998	135.20380520000001
      0.82111564500000001	137.70804709999999
      0.84766332799999999	140.50436830000001
      0.87595905799999996	143.6442744
      0.90600166900000001	147.18571779999999
      0.93767904199999996	151.19014369999999
      0.97072398500000001	155.71669249999999
      1.0046871660000001	160.81373919999999
      1.0389539999999999	166.5100477
      1.0728218	172.80985770000001
      1.1056189649999999	179.69557180000001
      1.1368151129999999	187.13741469999999
      1.166076154	195.10516089999999
      1.1932571599999999	203.57694960000001
      1.2183581130000001	212.54344710000001
      1.2414717689999999	222.00841339999999
      1.262740478	231.98749659999999
      1.2823264919999999	242.50660869999999
      1.3003940249999999	253.6005657
      1.317099609	265.31223169999998
      1.332587655	277.69219570000001
      1.346989049	290.79894300000001
      1.360421377	304.69948410000001
      1.3729899480000001	319.47042970000001
      1.3847891750000001	335.19953839999999
      1.395904035	351.98780690000001
      1.406411522	369.95222330000001
      1.416382027	389.22936779999998
      1.4258806550000001	409.98013700000001
      1.4349684949999999	432.3959911
      1.443703884	456.70731569999998
      1.452143746	483.19477810000001
      1.460345062	512.205018
      1.468366627	544.17275689999997
      1.476271267	579.65265699999998
      1.484128812	619.36640990000001
      1.4920203320000001	664.27439319999996
      1.5000444559999999	715.68841520000001
      1.5083273020000001	775.45608200000004
      1.517038858	846.27605440000002
      1.52642144	932.26565330000005
      1.5368418420000001	1040.044543
      1.5488919160000001	1180.938134
      1.5635876129999999	1375.704356
      1.5827254589999999	1664.518061
      1.609038255	2120.3213700000001
      1.6429877180000001	2803.4219309999999
      1.6763000130000001	3588.174364
      1.7038913950000001	4346.5592559999996
      1.7268422349999999	5076.0393119999999
      1.746445904	5791.6494789999997
      1.7635818270000001	6506.5344940000004
      1.778835427	7231.1495919999998
      1.792609184	7974.1327339999998
      1.805191346	8743.1111569999994
      1.8167966790000001	9545.295204
      1.8275911469999999	10387.927960000001
      1.837707435	11278.663500000001
      1.8472551399999999	12225.930109999999
      1.8563277979999999	13239.325269999999
      1.865008022	14330.08987
      1.873371527	15511.71947
      1.8814906259999999	16800.793989999998
      1.88943763	18218.15107
      1.8972886259999999	19790.607090000001
      1.905128269	21553.57647
      1.913056538	23555.22162
      1.921199232	25863.341659999998
      1.92972568	28577.465530000001
      1.938881257	31851.611560000001
      1.949053186	35941.14198
      1.960921235	41311.621829999996
      1.975868577	48939.738250000002
      1.9972472800000001	61282.289870000001
      2.0280781640000001	81252.957920000001
      2.0737002590000002	113566.1776
      2.1433819129999998	165850.06529999999
      2.250195926	248560.18210000001
      2.3541325240000002	331270.29889999999
      2.4580691219999999	413980.41570000001
      2.5620057200000002	496690.53249999997
      2.665942319	579400.64930000005
      2.7698789170000002	662110.76610000001
      2.873815515	744820.88289999997
      2.9777521130000002	827530.99970000004
      3.081688711	910241.1165
  <EndBlock>
  <BeginBlock>
    <BlockName> = "ShaftAir"
    <Mu_x> = 1
    <Mu_y> = 1
    <H_c> = 0
    <H_cAngle> = 0
    <J_re> = 0
    <J_im> = 0
    <Sigma> = 0
    <d_lam> = 0
    <Phi_h> = 0
    <Phi_hx> = 0
    <Phi_hy> = 0
    <LamType> = 0
    <LamFill> = 1
    <NStrands> = 0
    <WireD> = 0
    <BHPoints> = 3
      -100	-7.9577471545947675e-011
      0	0
      100	7.9577471545947675e-011
  <EndBlock>
  <BeginBlock>
    <BlockName> = "Copper"
    <Mu_x> = 1
    <Mu_y> = 1
    <H_c> = 0
    <H_cAngle> = 0
    <J_re> = 0
    <J_im> = 0
    <Sigma> = 58
    <d_lam> = 0
    <Phi_h> = 0
    <Phi_hx> = 0
    <Phi_hy> = 0
    <LamType> = 0
    <LamFill> = 1
    <NStrands> = 0
    <WireD> = 0
    <BHPoints> = 0
  <EndBlock>
  <BeginBlock>
    <BlockName> = "Aluminium"
    <Mu_x> = 1
    <Mu_y> = 1
    <H_c> = 0
    <H_cAngle> = 0
    <J_re> = 0
    <J_im> = 0
    <Sigma> = 29
    <d_lam> = 0
    <Phi_h> = 0
    <Phi_hx> = 0
    <Phi_hy> = 0
    <LamType> = 0
    <LamFill> = 1
    <NStrands> = 0
    <WireD> = 0
    <BHPoints> = 0
  <EndBlock>
  <BeginBlock>
    <BlockName> = "Air"
    <Mu_x> = 1
    <Mu_y> = 1
    <H_c> = 0
    <H_cAngle> = 0
    <J_re> = 0
    <J_im> = 0
    <Sigma> = 0
    <d_lam> = 0
    <Phi_h> = 0
    <Phi_hx> = 0
    <Phi_hy> = 0
    <LamType> = 0
    <LamFill> = 1
    <NStrands> = 0
    <WireD> = 0
    <BHPoints> = 0
  <EndBlock>
  <BeginBlock>
    <BlockName> = "DW235"
    <Mu_x> = 1
    <Mu_y> = 1
    <H_c> = 0
    <H_cAngle> = 0
    <J_re> = 0
    <J_im> = 0
    <Sigma> = 0
    <d_lam> = 0
    <Phi_h> = 0
    <Phi_hx> = 0
    <Phi_hy> = 0
    <LamType> = 0
    <LamFill> = 1
    <NStrands> = 0
    <WireD> = 0
    <BHPoints> = 0
  <EndBlock>
  <BeginBlock>
    <BlockName> = "Air"
    <Mu_x> = 1
    <Mu_y> = 1
    <H_c> = 0
    <H_cAngle> = 0
    <J_re> = 0
    <J_im> = 0
    <Sigma> = 0
    <d_lam> = 0
    <Phi_h> = 0
    <Phi_hx> = 0
    <Phi_hy> = 0
    <LamType> = 0
    <LamFill> = 1
    <NStrands> = 0
    <WireD> = 0
    <BHPoints> = 0
  <EndBlock>
[CircuitProps]  = 6
  <BeginCircuit>
    <CircuitName> = "fase1"
    <TotalAmps_re> = 2705.6584036576633
    <TotalAmps_im> = 0
    <CircuitType> = 1
  <EndCircuit>
  <BeginCircuit>
    <CircuitName> = "fase2"
    <TotalAmps_re> = -1604.1668263148038
    <TotalAmps_im> = -0
    <CircuitType> = 1
  <EndCircuit>
  <BeginCircuit>
    <CircuitName> = "fase3"
    <TotalAmps_re> = -1101.4915773428581
    <TotalAmps_im> = -0
    <CircuitType> = 1
  <EndCircuit>
  <BeginCircuit>
    <CircuitName> = "fase1n"
    <TotalAmps_re> = -2705.6584036576633
    <TotalAmps_im> = -0
    <CircuitType> = 1
  <EndCircuit>
  <BeginCircuit>
    <CircuitName> = "fase2n"
    <TotalAmps_re> = 1604.1668263148038
    <TotalAmps_im> = 0
    <CircuitType> = 1
  <EndCircuit>
  <BeginCircuit>
    <CircuitName> = "fase3n"
    <TotalAmps_re> = 1101.4915773428581
    <TotalAmps_im> = 0
    <CircuitType> = 1
  <EndCircuit>
[NumPoints] = 131
954.22958873008827	255.68504769410947	0	2
932.70938887519424	249.91872752203426	0	2
973.59697375467954	344.53737283999703	0	2
977.08898776864066	365.30005528252582	0	2
964.9334736300807	367.99818400503341	0	2
907.53615391325172	243.17357954310287	0	2
869.87580416718731	233.08251924197126	0	2
942.70115614726274	382.53997700307093	0	2
950.57658794498457	429.59419323244401	0	2
940.47694274578396	432.27329771233769	0	2
844.68970171082162	226.33392342830055	0	2
791.48698540288899	212.0782985584479	0	2
910.96936118484246	442.12351719483718	0	2
920.12801166730594	491.43815740470666	0	2
892.55495543242671	497.76786509105648	0	2
1015.4283987392023	188.4203694447516	0	2
1028.8339128069283	172.18536600579307	0	2
1019.6559931281283	163.77096092014111	0	2
1007.6731379020259	140.06124002585696	0	2
1038.0205700193112	103.24880931491478	0	2
1030.6135729475409	95.878814176333748	0	2
1009.984367452774	72.594483091166097	0	2
1042.5733115399046	34.466077132161303	0	2
1021.8591982236973	15.197861359813174	0	2
1050	0	0	20
428.56999999999999	0	0	2
909.3266739736606	524.99999999999989	0	20
371.15250729989691	214.28499999999997	0	2
0	0	0	2
1500	0	0	1
1055.5714285714287	0	0	20
1299.038105676658	749.99999999999989	0	1
914.15167265188836	527.78571428571422	0	20
1064.1496465288774	60.291943313728638	0	1
1064.752335739179	46.488090942413159	0	1
1069.553608037746	73.338260478981653	0	1
1384.6250808843097	100.90344255347196	0	1
1410.1493633621385	78.848582542632144	0	1
1411.1556129843743	61.612384653537113	0	1
1411.6554260749158	44.354075267944978	0	1
1388.150478903347	20.158552860534506	0	1
1071.8754842159665	20.158552860534495	0	1
1065.3550249494806	32.68423857109768	0	1
1239.1290270287457	20.158552860534499	0	1
1236.1707006248973	87.915367230006652	0	1
1053.8737219640354	59.843286757970901	0	1
1055.0791003846387	32.235582015339943	0	1
1054.8454467470649	152.80926710466676	0	1
1056.6489275491656	139.11047038489093	0	1
1059.0917830882327	166.27692537340033	0	1
1370.5618499402601	221.19750184248207	0	1
1397.9112125227095	201.45115502998399	0	1
1400.4158666905073	184.3682465108229	0	1
1402.4179386144119	167.21917178401014	0	1
1381.111213589754	141.06712951520527	0	1
1066.0397407431906	113.50194744071496	0	1
1058.4524083512663	125.41167366511513	0	1
1232.6568333303419	128.07905419173997	0	1
1223.8043687690169	195.32019829117735	0	1
1044.6477281729344	151.46671198468908	0	1
1048.2546897771356	124.06911854513746	0	1
1037.5132361824124	244.16362010418013	0	1
1040.5037829984365	230.6741351505411	0	1
1040.5696301723149	257.95012246497481	0	1
1346.0678157502937	339.80811457976756	0	1
1375.0341132741146	322.52056258802452	0	1
1379.0181100569062	305.72095468757033	0	1
1382.5072038379485	288.81162943310244	0	1
1363.5608580029912	260.90210013560363	0	1
1052.0907911509639	205.98152366652192	0	1
1043.4943298144603	217.18465019690206	0	1
1216.8033768317482	235.02479658429894	0	1
1202.1241467135224	301.23852470579186	0	1
1027.4713343948929	241.9373840751025	0	1
1033.4524280269411	214.9584141678244	0	1
1012.2849234227914	333.65974052467601	0	1
1016.4397763857274	320.48223046284465	0	1
1014.1281140576641	347.66016337004845	0	1
1311.3293927044983	455.83258238335156	0	1
1341.692174155206	441.13539392153001	0	1
1347.125192931871	424.74694179978582	0	1
1352.0747544596049	408.20605619297902	0	1
1335.6329809462691	378.7514482369748	0	1
1030.1347953682905	296.89345612218216	0	1
1020.5946293486636	307.30472040101324	0	1
1191.6893119094982	340.18185836299921	0	1
1171.2950340391326	404.86424405460104	0	1
1002.4752633579524	330.56676658691782	0	1
1010.7849692838246	304.21174646325505	0	1
979.35251116157428	420.61650885051944	0	1
984.64004933160561	407.85126248886445	0	1
979.96847064773726	434.7243005089299	0	1
1266.6109611778854	568.38788899575968	0	1
1298.1391474550915	556.39291854245914	0	1
1304.9798396721928	540.54034821568939	0	1
1311.3521997947657	524.49378838367136	0	1
1297.5401304273021	493.71826912088534	0	1
1000.3388517804681	385.54585010758234	0	1
989.92758750163716	395.0860161272094	0	1
1157.5057717619368	442.74993079213493	0	1
1131.5516589084268	505.40870204244021	0	1
969.84975025574397	416.68033640333567	0	1
980.42482659580673	391.14984368002564	0	1
938.96663494120332	504.37213156881847	0	1
945.34661696015326	492.11630014001844	0	1
938.35067545504023	518.47992322722894	0	1
1212.2528554361004	676.61742057091919	0	1
1244.7064980049952	667.41595709405044	0	1
1252.9028018642384	652.21991619448545	0	1
1260.6494630733812	636.7898061467555	0	1
1249.572216039631	604.92759586154432	0	1
962.92972550948309	471.26400737471465	0	1
951.72659897910319	479.86046871121846	0	1
1114.5129137701724	541.94840890822502	0	1
1083.1964924038552	602.10669463361842	0	1
929.84309494279876	499.62271726125812	0	1
942.60305898069862	475.1110544036581	0	1
1494.2920471376183	130.73361412148725	0	1
1051.5546605999868	91.99911188034946	0	1
1477.2116295183121	260.47226650039551	0	1
1039.5349267153151	183.29805496870691	0	1
1448.8887394336025	388.22856765378111	0	1
1019.6037043499895	273.20198918036084	0	1
1409.5389311788626	513.03021498850296	0	1
991.91268214101115	361.02669129048087	0	1
1359.4616805549749	633.92739261104907	0	1
956.67260548768672	446.10376228600398	0	1
1053.7142857142858	0	0	20
912.54333975914574	526.85714285714278	0	20
1051.8571428571429	0	0	20
910.93500686640323	525.92857142857133	0	20
[NumSegments] = 96
0	1	14.285714285714285	0	0	2
5	6	14.285714285714285	0	0	2
10	11	14.285714285714285	0	0	2
24	25	-1	4	0	2
27	26	-1	4	0	2
25	28	-1	2	0	2
28	27	-1	2	0	2
29	30	-1	10	0	1
32	31	-1	10	0	1
33	34	14.285714285714285	0	0	1
35	33	14.285714285714285	0	0	1
36	44	14.285714285714285	0	0	1
38	37	14.285714285714285	0	0	1
39	38	14.285714285714285	0	0	1
41	43	14.285714285714285	0	0	1
42	41	14.285714285714285	0	0	1
34	42	14.285714285714285	0	0	1
43	40	14.285714285714285	0	0	1
44	35	14.285714285714285	0	0	1
43	44	14.285714285714285	0	0	1
33	45	14.285714285714285	0	0	1
46	42	14.285714285714285	0	0	1
47	48	14.285714285714285	0	0	1
49	47	14.285714285714285	0	0	1
50	58	14.285714285714285	0	0	1
52	51	14.285714285714285	0	0	1
53	52	14.285714285714285	0	0	1
55	57	14.285714285714285	0	0	1
56	55	14.285714285714285	0	0	1
48	56	14.285714285714285	0	0	1
57	54	14.285714285714285	0	0	1
58	49	14.285714285714285	0	0	1
57	58	14.285714285714285	0	0	1
47	59	14.285714285714285	0	0	1
60	56	14.285714285714285	0	0	1
61	62	14.285714285714285	0	0	1
63	61	14.285714285714285	0	0	1
64	72	14.285714285714285	0	0	1
66	65	14.285714285714285	0	0	1
67	66	14.285714285714285	0	0	1
69	71	14.285714285714285	0	0	1
70	69	14.285714285714285	0	0	1
62	70	14.285714285714285	0	0	1
71	68	14.285714285714285	0	0	1
72	63	14.285714285714285	0	0	1
71	72	14.285714285714285	0	0	1
61	73	14.285714285714285	0	0	1
74	70	14.285714285714285	0	0	1
75	76	14.285714285714285	0	0	1
77	75	14.285714285714285	0	0	1
78	86	14.285714285714285	0	0	1
80	79	14.285714285714285	0	0	1
81	80	14.285714285714285	0	0	1
83	85	14.285714285714285	0	0	1
84	83	14.285714285714285	0	0	1
76	84	14.285714285714285	0	0	1
85	82	14.285714285714285	0	0	1
86	77	14.285714285714285	0	0	1
85	86	14.285714285714285	0	0	1
75	87	14.285714285714285	0	0	1
88	84	14.285714285714285	0	0	1
89	90	14.285714285714285	0	0	1
91	89	14.285714285714285	0	0	1
92	100	14.285714285714285	0	0	1
94	93	14.285714285714285	0	0	1
95	94	14.285714285714285	0	0	1
97	99	14.285714285714285	0	0	1
98	97	14.285714285714285	0	0	1
90	98	14.285714285714285	0	0	1
99	96	14.285714285714285	0	0	1
100	91	14.285714285714285	0	0	1
99	100	14.285714285714285	0	0	1
89	101	14.285714285714285	0	0	1
102	98	14.285714285714285	0	0	1
103	104	14.285714285714285	0	0	1
105	103	14.285714285714285	0	0	1
106	114	14.285714285714285	0	0	1
108	107	14.285714285714285	0	0	1
109	108	14.285714285714285	0	0	1
111	113	14.285714285714285	0	0	1
112	111	14.285714285714285	0	0	1
104	112	14.285714285714285	0	0	1
113	110	14.285714285714285	0	0	1
114	105	14.285714285714285	0	0	1
113	114	14.285714285714285	0	0	1
103	115	14.285714285714285	0	0	1
116	112	14.285714285714285	0	0	1
117	118	14.285714285714285	0	0	1
119	120	14.285714285714285	0	0	1
121	122	14.285714285714285	0	0	1
123	124	14.285714285714285	0	0	1
125	126	14.285714285714285	0	0	1
127	30	1.4285714285714284	7	0	20
128	32	1.4285714285714284	7	0	20
129	24	1.4285714285714284	5	0	20
130	26	1.4285714285714284	5	0	20
[NumArcSegments] = 64
2	0	54.593161044465319	2.0638447584920496	0	0	2	2.0638447584920496
2	3	60.092206804921531	9.7325962872684872	0	0	2	9.7325962872684872
3	4	113.97211322925787	10	0	0	2	10
4	1	60.528841010287579	1.685175475023474	0	0	2	1.685175475023474
7	5	58.322620361908662	1.3874064666040467	0	0	2	1.3874064666040467
7	8	67.642264160640096	4.7746514241771916	0	0	2	4.7746514241771916
8	9	101.64765173950053	10	0	0	2	10
9	6	69.032704461767594	1.0973276544229387	0	0	2	1.0973276544229387
12	10	64.148624569217304	0.96271479299903995	0	0	2	0.96271479299903995
12	13	77.255192408006423	5.093519366461936	0	0	2	5.093519366461936
13	14	97.929081291330121	10	0	0	2	10
14	11	68.964350869881116	0.76458534061072181	0	0	2	0.76458534061072181
0	15	54.593161044465248	2.0638447584920665	0	0	2	2.0638447584920665
16	15	60.092206804921815	9.7325962872730329	0	0	2	9.7325962872730329
17	16	113.97211322925726	10	0	0	2	10
1	17	60.528841010287621	1.6851754750234631	0	0	2	1.6851754750234631
5	18	58.322620361908747	1.3874064666040373	0	0	2	1.3874064666040373
19	18	67.642264160640011	4.7746514241774776	0	0	2	4.7746514241774776
20	19	101.64765173950096	10	0	0	2	10
6	20	69.032704461767665	1.09732765442293	0	0	2	1.09732765442293
10	21	64.14862456921739	0.96271479299903662	0	0	2	0.96271479299903662
22	21	77.255192408006366	5.0935193664620355	0	0	2	5.0935193664620355
23	22	97.929081291329965	10	0	0	2	10
11	23	68.964350869881187	0.76458534061072247	0	0	2	0.76458534061072247
24	26	29.999999999999993	0.19488360378599429	0	0	2	0.19488360378599429
25	27	29.999999999999993	0.47746642083042218	0	0	2	0.47746642083042218
29	117	4.9999999999999991	10	1	0	1	0.41999999999999998
30	46	1.7500000000000007	0.19385498549560942	0	0	1	0.19385498549560942
37	36	91.658863437697903	8.7020840068571648	0	0	1	8.7020840068571648
40	39	91.658863437697974	8.7020840068572483	0	0	1	8.7020840068572483
45	118	1.75	0.19385498549560942	0	0	1	0.19385498549560942
46	45	1.5000000000000002	0.19385498549560942	0	0	1	0.19385498549560942
51	50	91.658863437697832	8.702084006857179	0	0	1	8.702084006857179
54	53	91.658863437697477	8.7020840068572447	0	0	1	8.7020840068572447
59	120	1.7499999999999989	0.19385498549560942	0	0	1	0.19385498549560942
60	59	1.5000000000000009	0.19385498549560942	0	0	1	0.19385498549560942
65	64	91.658863437697676	8.7020840068571808	0	0	1	8.7020840068571808
68	67	91.65886343769796	8.7020840068572536	0	0	1	8.7020840068572536
73	122	1.7500000000000002	0.19385498549560942	0	0	1	0.19385498549560942
74	73	1.5	0.19385498549560942	0	0	1	0.19385498549560942
79	78	91.658863437697605	8.7020840068571683	0	0	1	8.7020840068571683
82	81	91.658863437697633	8.7020840068572323	0	0	1	8.7020840068572323
87	124	1.7499999999999951	0.19385498549560942	0	0	1	0.19385498549560942
88	87	1.5	0.19385498549560942	0	0	1	0.19385498549560942
93	92	91.658863437698088	8.7020840068571221	0	0	1	8.7020840068571221
96	95	91.658863437697903	8.7020840068572305	0	0	1	8.7020840068572305
101	126	1.7499999999999991	0.19385498549560942	0	0	1	0.19385498549560942
102	101	1.5	0.19385498549560942	0	0	1	0.19385498549560942
107	106	91.65886343769769	8.7020840068571914	0	0	1	8.7020840068571914
110	109	91.658863437698116	8.702084006857266	0	0	1	8.702084006857266
115	32	1.7499999999999918	0.19385498549560942	0	0	1	0.19385498549560942
116	115	1.5000000000000033	0.19385498549560942	0	0	1	0.19385498549560942
117	119	4.9999999999999982	10	1	0	1	1.2
118	60	1.7500000000000018	0.19385498549560942	0	0	1	0.19385498549560942
119	121	5.0000000000000009	10	1	0	1	0.82999999999999996
120	74	1.75	0.19385498549560942	0	0	1	0.19385498549560942
121	123	4.9999999999999947	10	1	0	1	0.82999999999999996
122	88	1.7500000000000044	0.19385498549560942	0	0	1	0.19385498549560942
123	125	5.0000000000000044	10	1	0	1	0.70999999999999996
124	102	1.7500000000000031	0.19385498549560942	0	0	1	0.19385498549560942
125	31	4.9999999999999947	10	1	0	1	0.41999999999999998
126	116	1.750000000000006	0.19385498549560942	0	0	1	0.19385498549560942
127	128	30	1.4285714285714284	11	0	20	0.10000000000000001
129	130	30	1.4285714285714284	11	0	20	0.10000000000000001
[NumHoles] = 0
[NumBlockLabels] = 34
971.87314505113375	359.27853737585212	7	14.285714285714286	0	0	2	1	0
944.58489561267697	414.80248931595088	7	14.285714285714286	0	0	2	1	0
907.88410942819166	477.10984656353344	7	14.285714285714286	0	0	2	1	0
1021.3061015580864	174.79223212356194	7	14.285714285714286	0	0	2	1	0
1025.4357602896259	113.06295450570181	7	14.285714285714286	0	0	2	1	0
1024.8056257387918	40.752807194380125	7	14.285714285714286	0	0	2	1	0
602.72690838779749	161.50018835901761	1	14.285714285714286	0	0	22	1	0
206.983415686353	55.461039079793657	7	14.285714285714286	0	0	2	1	0
1151.2010997830002	50.262525493841871	3	14.285714285714286	1	0	1	1	0
1324.0986278706428	57.811394596699287	3	14.285714285714286	1	0	1	1	0
1059.6595471030428	46.265734988525701	7	14.285714285714286	0	0	10	1	0
1454.8639726785805	63.52073285077055	1	14.285714285714286	0	0	12	1	0
1142.4397642994227	150.4050483131748	3	14.285714285714286	1	0	1	1	0
1314.0214377999364	172.99420416974252	3	14.285714285714286	1	0	1	1	0
1051.5948981096603	138.44509478629982	7	14.285714285714286	0	0	10	1	0
1443.7915793756115	190.07876742045013	1	14.285714285714286	0	0	12	1	0
1124.983772385536	249.40289789779325	3	14.285714285714286	3	0	1	-1	0
1293.943751159735	286.86042339229755	3	14.285714285714286	3	0	1	-1	0
1035.5269769713029	229.5708038173164	7	14.285714285714286	0	0	10	1	0
1421.7310603684032	315.19018779736234	1	14.285714285714286	0	0	12	1	0
1098.9659746800214	346.50264083582243	3	14.285714285714286	3	0	1	-1	0
1264.0183712686094	398.54346158177788	3	14.285714285714286	3	0	1	-1	0
1011.57807026991	318.9493404126419	7	14.285714285714286	0	0	10	1	0
1388.8503095271055	437.90282052809772	1	14.285714285714286	0	0	12	1	0
1064.5843823333937	440.96528945307602	3	14.285714285714286	2	0	1	1	0
1224.4730483369697	507.19334338149918	3	14.285714285714286	2	0	1	1	0
979.93044364622403	405.90047994054987	7	14.285714285714286	0	0	10	1	0
1345.3995692195615	557.28274838166203	1	14.285714285714286	0	0	12	1	0
1022.1006600235836	532.07192595547008	3	14.285714285714286	2	0	1	1	0
1175.6087461504442	611.98317758637336	3	14.285714285714286	2	0	1	1	0
940.82495464821079	489.76247172669963	7	14.285714285714286	0	0	10	1	0
1291.7095258157854	672.4214180235183	1	14.285714285714286	0	0	12	1	0
1018.7067732255781	272.96165720990848	7	1.4285714285714284	0	0	20	1	0
1015.1190487279329	272.0003293280991	7	1.4285714285714284	0	0	20	1	0
