[Format]      =  4.0
[Frequency]   =  0
[Precision]   =  1e-008
[MinAngle]    =  15
[DoSmartMesh] =  1
[Depth]       =  300
[LengthUnits] =  millimeters
[ProblemType] =  planar
[Coordinates] =  cartesian
[ACSolver]    =  0
[PrevType]    =  0
[PrevSoln]    =  ""
[Comment]     =  "Add comments here."
[PointProps]   = 0
[BdryProps]   = 11
  <BeginBdry>
    <BdryName> = "A=0"
    <BdryType> = 0
    <A_0> = 0
    <A_1> = 0
    <A_2> = 0
    <Phi> = 0
    <c0> = 0
    <c0i> = 0
    <c1> = 0
    <c1i> = 0
    <Mu_ssd> = 0
    <Sigma_ssd> = 0
    <innerangle> = 0
    <outerangle> = 0
  <EndBdry>
  <BeginBdry>
    <BdryName> = "APr1"
    <BdryType> = 5
    <A_0> = 0
    <A_1> = 0
    <A_2> = 0
    <Phi> = 0
    <c0> = 0
    <c0i> = 0
    <c1> = 0
    <c1i> = 0
    <Mu_ssd> = 0
    <Sigma_ssd> = 0
    <innerangle> = 0
    <outerangle> = 0
  <EndBdry>
  <BeginBdry>
    <BdryName> = "APr2"
    <BdryType> = 5
    <A_0> = 0
    <A_1> = 0
    <A_2> = 0
    <Phi> = 0
    <c0> = 0
    <c0i> = 0
    <c1> = 0
    <c1i> = 0
    <Mu_ssd> = 0
    <Sigma_ssd> = 0
    <innerangle> = 0
    <outerangle> = 0
  <EndBdry>
  <BeginBdry>
    <BdryName> = "APr3"
    <BdryType> = 5
    <A_0> = 0
    <A_1> = 0
    <A_2> = 0
    <Phi> = 0
    <c0> = 0
    <c0i> = 0
    <c1> = 0
    <c1i> = 0
    <Mu_ssd> = 0
    <Sigma_ssd> = 0
    <innerangle> = 0
    <outerangle> = 0
  <EndBdry>
  <BeginBdry>
    <BdryName> = "APg1"
    <BdryType> = 5
    <A_0> = 0
    <A_1> = 0
    <A_2> = 0
    <Phi> = 0
    <c0> = 0
    <c0i> = 0
    <c1> = 0
    <c1i> = 0
    <Mu_ssd> = 0
    <Sigma_ssd> = 0
    <innerangle> = 0
    <outerangle> = 0
  <EndBdry>
  <BeginBdry>
    <BdryName> = "APg2"
    <BdryType> = 5
    <A_0> = 0
    <A_1> = 0
    <A_2> = 0
    <Phi> = 0
    <c0> = 0
    <c0i> = 0
    <c1> = 0
    <c1i> = 0
    <Mu_ssd> = 0
    <Sigma_ssd> = 0
    <innerangle> = 0
    <outerangle> = 0
  <EndBdry>
  <BeginBdry>
    <BdryName> = "APg3"
    <BdryType> = 5
    <A_0> = 0
    <A_1> = 0
    <A_2> = 0
    <Phi> = 0
    <c0> = 0
    <c0i> = 0
    <c1> = 0
    <c1i> = 0
    <Mu_ssd> = 0
    <Sigma_ssd> = 0
    <innerangle> = 0
    <outerangle> = 0
  <EndBdry>
  <BeginBdry>
    <BdryName> = "APs1"
    <BdryType> = 5
    <A_0> = 0
    <A_1> = 0
    <A_2> = 0
    <Phi> = 0
    <c0> = 0
    <c0i> = 0
    <c1> = 0
    <c1i> = 0
    <Mu_ssd> = 0
    <Sigma_ssd> = 0
    <innerangle> = 0
    <outerangle> = 0
  <EndBdry>
  <BeginBdry>
    <BdryName> = "APs2"
    <BdryType> = 5
    <A_0> = 0
    <A_1> = 0
    <A_2> = 0
    <Phi> = 0
    <c0> = 0
    <c0i> = 0
    <c1> = 0
    <c1i> = 0
    <Mu_ssd> = 0
    <Sigma_ssd> = 0
    <innerangle> = 0
    <outerangle> = 0
  <EndBdry>
  <BeginBdry>
    <BdryName> = "APs3"
    <BdryType> = 5
    <A_0> = 0
    <A_1> = 0
    <A_2> = 0
    <Phi> = 0
    <c0> = 0
    <c0i> = 0
    <c1> = 0
    <c1i> = 0
    <Mu_ssd> = 0
    <Sigma_ssd> = 0
    <innerangle> = 0
    <outerangle> = 0
  <EndBdry>
  <BeginBdry>
    <BdryName> = "AGap"
    <BdryType> = 7
    <A_0> = 0
    <A_1> = 0
    <A_2> = 0
    <Phi> = 0
    <c0> = 0
    <c0i> = 0
    <c1> = 0
    <c1i> = 0
    <Mu_ssd> = 0
    <Sigma_ssd> = 0
    <innerangle> = 1
    <outerangle> = 0
  <EndBdry>
[BlockProps]  = 7
  <BeginBlock>
    <BlockName> = "M600-50A"
    <Mu_x> = 1
    <Mu_y> = 1
    <H_c> = 0
    <H_cAngle> = 0
    <J_re> = 0
    <J_im> = 0
    <Sigma> = 0
    <d_lam> = 0
    <Phi_h> = 0
    <Phi_hx> = 0
    <Phi_hy> = 0
    <LamType> = 0
    <LamFill> = 1
    <NStrands> = 0
    <WireD> = 0
    <BHPoints> = 208
      0	0
      0.0061294119999999999	8.2635015680000006
      0.012398954	15.54584049
      0.018188152999999999	21.42337126
      0.023698273999999998	26.396066560000001
      0.028962854999999999	30.670770340000001
      0.034031080999999998	34.409892589999998
      0.038937833999999998	37.72521158
      0.043710287	40.697869570000002
      0.048369641999999997	43.388214720000001
      0.052932743999999997	45.842257519999997
      0.057413198999999998	48.095830579999998
      0.061822165999999998	50.17736026
      0.066168929000000001	52.109762629999999
      0.070461307000000001	53.911772880000001
      0.074705967999999998	55.598898519999999
      0.078908651999999996	57.184116670000002
      0.083074354000000003	58.67839326
      0.087207454000000004	60.091076020000003
      0.091311829999999997	61.430196219999999
      0.095390935999999996	62.702703470000003
      0.099447875000000005	63.914650479999999
      0.10348545000000001	65.071340269999993
      0.107506212	66.177444339999994
      0.111512495	67.237098649999993
      0.115506446	68.253982050000005
      0.119490053	69.231381029999994
      0.123465163	70.172243330000001
      0.127433505	71.079222909999999
      0.131396704	71.954717669999994
      0.13535628999999999	72.800901379999999
      0.139313718	73.619750830000001
      0.14327037200000001	74.413069070000006
      0.147227575	75.182505329999998
      0.151186599	75.929572239999999
      0.15514867099999999	76.655660710000006
      0.15911497799999999	77.362052919999996
      0.16308667299999999	78.049933670000001
      0.167064883	78.720400249999997
      0.171050709	79.374471249999999
      0.17504523399999999	80.013094219999999
      0.17904952399999999	80.637152520000001
      0.183064634	81.247471390000001
      0.18709161099999999	81.844823349999999
      0.19113149500000001	82.429933079999998
      0.19518532499999999	83.003481679999993
      0.19925414	83.566110629999997
      0.203338983	84.118425299999998
      0.20744090200000001	84.6609981
      0.21156095499999999	85.194371430000004
      0.21570021	85.719060249999998
      0.21985974999999999	86.23555451
      0.224040674	86.744321339999999
      0.228244101	87.245807119999995
      0.232471172	87.740439260000002
      0.23672305199999999	88.228628009999994
      0.241000933	88.710768049999999
      0.245306038	89.187239969999993
      0.249639624	89.658411700000002
      0.25400298399999999	90.124639849999994
      0.258397449	90.586270990000003
      0.26282439699999999	91.043642790000007
      0.267285249	91.497085290000001
      0.27178147899999999	91.946921900000007
      0.27631461499999999	92.393470609999994
      0.28088624499999998	92.837044969999994
      0.28549801899999999	93.277955219999996
      0.29015165799999998	93.716509279999997
      0.294848956	94.153013889999997
      0.299591787	94.587775629999996
      0.30438211199999998	95.021102040000002
      0.30922198299999998	95.45330276
      0.31411355600000002	95.884690719999995
      0.31905909100000002	96.315583349999997
      0.324060968	96.746303900000001
      0.32912169099999999	97.177182860000002
      0.33424390300000001	97.608559369999995
      0.33943039400000002	98.040782919999998
      0.34468411100000002	98.474215020000003
      0.35000818	98.909231149999997
      0.35540591100000002	99.346222819999994
      0.36088082199999999	99.785599880000007
      0.366436651	100.2277931
      0.37207738099999998	100.67325700000001
      0.37780725700000001	101.1224732
      0.38363081700000001	101.57595360000001
      0.389552911	102.03424510000001
      0.39557873700000001	102.4979336
      0.401713873	102.9676498
      0.40796431599999999	103.44407510000001
      0.41433652900000001	103.9279489
      0.420837509	104.4200783
      0.42747497499999998	104.9213567
      0.43425898400000001	105.43288579999999
      0.44146202099999998	105.9749185
      0.44856258700000001	106.5079061
      0.45587690400000003	107.05707719999999
      0.46342101400000002	107.62377619999999
      0.47120716099999999	108.2090887
      0.47924850299999999	108.8142005
      0.48755929799999997	109.4404164
      0.496155022	110.0891769
      0.50505251799999995	110.7620768
      0.51427015700000001	111.4608879
      0.52382802100000003	112.1875854
      0.53374812500000002	112.944379
      0.54405466000000002	113.73375040000001
      0.55477427700000004	114.558498
      0.56593642099999997	115.4217907
      0.57757370900000005	116.3272333
      0.58972237000000005	117.2789456
      0.60242275199999995	118.28165920000001
      0.61571989900000001	119.3408371
      0.62966422099999997	120.4628209
      0.64431222899999996	121.65501310000001
      0.65972736300000001	122.92610569999999
      0.67598086099999999	124.28636400000001
      0.69315263800000004	125.74798269999999
      0.71133206000000004	127.3255305
      0.73061842099999996	129.03650049999999
      0.75112078999999998	130.90198509999999
      0.772956635	132.94748089999999
      0.79624826999999998	135.20380520000001
      0.82111564500000001	137.70804709999999
      0.84766332799999999	140.50436830000001
      0.87595905799999996	143.6442744
      0.90600166900000001	147.18571779999999
      0.93767904199999996	151.19014369999999
      0.97072398500000001	155.71669249999999
      1.0046871660000001	160.81373919999999
      1.0389539999999999	166.5100477
      1.0728218	172.80985770000001
      1.1056189649999999	179.69557180000001
      1.1368151129999999	187.13741469999999
      1.166076154	195.10516089999999
      1.1932571599999999	203.57694960000001
      1.2183581130000001	212.54344710000001
      1.2414717689999999	222.00841339999999
      1.262740478	231.98749659999999
      1.2823264919999999	242.50660869999999
      1.3003940249999999	253.6005657
      1.317099609	265.31223169999998
      1.332587655	277.69219570000001
      1.346989049	290.79894300000001
      1.360421377	304.69948410000001
      1.3729899480000001	319.47042970000001
      1.3847891750000001	335.19953839999999
      1.395904035	351.98780690000001
      1.406411522	369.95222330000001
      1.416382027	389.22936779999998
      1.4258806550000001	409.98013700000001
      1.4349684949999999	432.3959911
      1.443703884	456.70731569999998
      1.452143746	483.19477810000001
      1.460345062	512.205018
      1.468366627	544.17275689999997
      1.476271267	579.65265699999998
      1.484128812	619.36640990000001
      1.4920203320000001	664.27439319999996
      1.5000444559999999	715.68841520000001
      1.5083273020000001	775.45608200000004
      1.517038858	846.27605440000002
      1.52642144	932.26565330000005
      1.5368418420000001	1040.044543
      1.5488919160000001	1180.938134
      1.5635876129999999	1375.704356
      1.5827254589999999	1664.518061
      1.609038255	2120.3213700000001
      1.6429877180000001	2803.4219309999999
      1.6763000130000001	3588.174364
      1.7038913950000001	4346.5592559999996
      1.7268422349999999	5076.0393119999999
      1.746445904	5791.6494789999997
      1.7635818270000001	6506.5344940000004
      1.778835427	7231.1495919999998
      1.792609184	7974.1327339999998
      1.805191346	8743.1111569999994
      1.8167966790000001	9545.295204
      1.8275911469999999	10387.927960000001
      1.837707435	11278.663500000001
      1.8472551399999999	12225.930109999999
      1.8563277979999999	13239.325269999999
      1.865008022	14330.08987
      1.873371527	15511.71947
      1.8814906259999999	16800.793989999998
      1.88943763	18218.15107
      1.8972886259999999	19790.607090000001
      1.905128269	21553.57647
      1.913056538	23555.22162
      1.921199232	25863.341659999998
      1.92972568	28577.465530000001
      1.938881257	31851.611560000001
      1.949053186	35941.14198
      1.960921235	41311.621829999996
      1.975868577	48939.738250000002
      1.9972472800000001	61282.289870000001
      2.0280781640000001	81252.957920000001
      2.0737002590000002	113566.1776
      2.1433819129999998	165850.06529999999
      2.250195926	248560.18210000001
      2.3541325240000002	331270.29889999999
      2.4580691219999999	413980.41570000001
      2.5620057200000002	496690.53249999997
      2.665942319	579400.64930000005
      2.7698789170000002	662110.76610000001
      2.873815515	744820.88289999997
      2.9777521130000002	827530.99970000004
      3.081688711	910241.1165
  <EndBlock>
  <BeginBlock>
    <BlockName> = "ShaftAir"
    <Mu_x> = 1
    <Mu_y> = 1
    <H_c> = 0
    <H_cAngle> = 0
    <J_re> = 0
    <J_im> = 0
    <Sigma> = 0
    <d_lam> = 0
    <Phi_h> = 0
    <Phi_hx> = 0
    <Phi_hy> = 0
    <LamType> = 0
    <LamFill> = 1
    <NStrands> = 0
    <WireD> = 0
    <BHPoints> = 3
      -100	-7.9577471545947675e-011
      0	0
      100	7.9577471545947675e-011
  <EndBlock>
  <BeginBlock>
    <BlockName> = "Copper"
    <Mu_x> = 1
    <Mu_y> = 1
    <H_c> = 0
    <H_cAngle> = 0
    <J_re> = 0
    <J_im> = 0
    <Sigma> = 58
    <d_lam> = 0
    <Phi_h> = 0
    <Phi_hx> = 0
    <Phi_hy> = 0
    <LamType> = 0
    <LamFill> = 1
    <NStrands> = 0
    <WireD> = 0
    <BHPoints> = 0
  <EndBlock>
  <BeginBlock>
    <BlockName> = "Aluminium"
    <Mu_x> = 1
    <Mu_y> = 1
    <H_c> = 0
    <H_cAngle> = 0
    <J_re> = 0
    <J_im> = 0
    <Sigma> = 29
    <d_lam> = 0
    <Phi_h> = 0
    <Phi_hx> = 0
    <Phi_hy> = 0
    <LamType> = 0
    <LamFill> = 1
    <NStrands> = 0
    <WireD> = 0
    <BHPoints> = 0
  <EndBlock>
  <BeginBlock>
    <BlockName> = "Air"
    <Mu_x> = 1
    <Mu_y> = 1
    <H_c> = 0
    <H_cAngle> = 0
    <J_re> = 0
    <J_im> = 0
    <Sigma> = 0
    <d_lam> = 0
    <Phi_h> = 0
    <Phi_hx> = 0
    <Phi_hy> = 0
    <LamType> = 0
    <LamFill> = 1
    <NStrands> = 0
    <WireD> = 0
    <BHPoints> = 0
  <EndBlock>
  <BeginBlock>
    <BlockName> = "DW235"
    <Mu_x> = 1
    <Mu_y> = 1
    <H_c> = 0
    <H_cAngle> = 0
    <J_re> = 0
    <J_im> = 0
    <Sigma> = 0
    <d_lam> = 0
    <Phi_h> = 0
    <Phi_hx> = 0
    <Phi_hy> = 0
    <LamType> = 0
    <LamFill> = 1
    <NStrands> = 0
    <WireD> = 0
    <BHPoints> = 0
  <EndBlock>
  <BeginBlock>
    <BlockName> = "Air"
    <Mu_x> = 1
    <Mu_y> = 1
    <H_c> = 0
    <H_cAngle> = 0
    <J_re> = 0
    <J_im> = 0
    <Sigma> = 0
    <d_lam> = 0
    <Phi_h> = 0
    <Phi_hx> = 0
    <Phi_hy> = 0
    <LamType> = 0
    <LamFill> = 1
    <NStrands> = 0
    <WireD> = 0
    <BHPoints> = 0
  <EndBlock>
[CircuitProps]  = 6
  <BeginCircuit>
    <CircuitName> = "fase1"
    <TotalAmps_re> = 251.20497683763654
    <TotalAmps_im> = 0
    <CircuitType> = 1
  <EndCircuit>
  <BeginCircuit>
    <CircuitName> = "fase2"
    <TotalAmps_re> = -255.13625276811356
    <TotalAmps_im> = -0
    <CircuitType> = 1
  <EndCircuit>
  <BeginCircuit>
    <CircuitName> = "fase3"
    <TotalAmps_re> = 3.9312759304771419
    <TotalAmps_im> = 0
    <CircuitType> = 1
  <EndCircuit>
  <BeginCircuit>
    <CircuitName> = "fase1n"
    <TotalAmps_re> = -251.20497683763654
    <TotalAmps_im> = -0
    <CircuitType> = 1
  <EndCircuit>
  <BeginCircuit>
    <CircuitName> = "fase2n"
    <TotalAmps_re> = 255.13625276811356
    <TotalAmps_im> = 0
    <CircuitType> = 1
  <EndCircuit>
  <BeginCircuit>
    <CircuitName> = "fase3n"
    <TotalAmps_re> = -3.9312759304771419
    <TotalAmps_im> = -0
    <CircuitType> = 1
  <EndCircuit>
[NumPoints] = 143
722.13693071024181	22.69406730422909	0	2
720.34951721527227	22.637895572206702	0	2
721.95947858035834	28.34068563421598	0	2
726.15934161227494	28.604918619379916	0	2
726.90443110998979	29.431242458687635	0	2
725.85610001352802	30.376514097914963	0	2
720.11766720549394	30.015482507240073	0	2
717.8648150859035	22.55981066205068	0	2
714.22378759615117	22.445386763486564	0	2
717.55601429647129	32.369501854148936	0	2
723.63277705429994	32.752329288763917	0	2
726.60487285526995	36.077815108138083	0	2
726.07108862323889	36.554716763585695	0	2
713.80463693582942	35.782977037289356	0	2
711.82317646995841	22.369944519568204	0	2
706.39473548523677	22.19934888898171	0	2
711.3307140705042	38.040352158035304	0	2
722.75121827429678	38.758869379885823	0	2
726.24544755934221	42.705970300777182	0	2
724.43757700008973	44.30641436813584	0	2
705.73696730595225	43.129871731788803	0	2
722.31438284012529	17.047448974242201	0	2
726.52254972813091	17.047448974242201	0	2
727.31805426509129	16.269540252932984	0	2
726.33114590790319	15.260308637173331	0	2
720.5813672250506	15.260308637173331	0	2
718.17361587533583	12.750119469952425	0	2
724.26242546347567	12.750628391453365	0	2
727.4364288699079	9.6172736778979679	0	2
726.93364284183713	9.1077964896837731	0	2
714.64293825647292	9.1077964896837749	0	2
712.31563886941262	6.6995368811011051	0	2
723.75872338657575	6.6995368811011069	0	2
727.49389812576533	2.9796291344102279	0	2
725.79008770055998	1.2688260461746168	0	2
707.05250366452128	1.2688260461746168	0	2
728	0	0	20
700	0	0	2
726.56345829578174	45.711498217340136	0	20
698.61870989979013	43.953363670519359	0	2
0	0	0	2
800	0	0	1
729	0	0	20
798.4213827426172	50.232415623450699	0	1
727.56148502421001	45.774288736869451	0	20
734.46875102727472	4.9908302800790478	0	1
734.47474678208641	3.8457359256385897	0	1
734.86426992219401	5.850750031908154	0	1
789.94889624730786	6.4276159768345895	0	1
791.97923723081158	4.4318225463412837	0	1
791.98114356962401	4.1468414667736555	0	1
791.9822215956799	3.8618560501309425	0	1
789.97289145500508	1.8449107577961192	0	1
734.88524463926399	1.8449107577961184	0	1
734.48074253689811	2.7006415711981315	0	1
763.2375371757463	1.8449107577961184	0	1
763.21500788448736	6.1476491185508433	0	1
728.98311193837458	4.9621072784895457	0	1
728.99510344799796	2.6719185696086303	0	1
734.37621674239051	12.681754830574469	0	1
734.39420334932356	11.536786048634017	0	1
734.76270905675949	13.545769220939466	0	1
789.83827424122217	14.699437850940789	0	1
791.88940341778618	12.725015143529202	0	1
791.89429391241538	12.440069652423478	0	1
791.89835618512177	12.155111150568109	0	1
789.910257232969	10.117235177171978	0	1
734.82563090785527	9.540369232245542	0	1
734.41218995625673	10.391817266693563	0	1
763.17636887014862	9.8372683188882313	0	1
763.10878346696256	14.139534835894246	0	1
728.891179215634	12.595588975606768	0	1
728.92715242950021	10.305651411725862	0	1
734.20314982967295	20.371288683742335	0	1
734.23312531629324	19.226571033031448	0	1
734.58057318025374	21.239302963728758	0	1
789.64103756769737	22.969647766039024	0	1
791.71273000789358	21.016812299408745	0	1
791.72060412204155	20.731933644249072	0	1
791.72765019592453	20.447033306091964	0	1
789.76100044974783	18.388450127699787	0	1
734.68543526528526	17.234781497698464	0	1
734.26310080291353	18.081853382320567	0	1
763.03150967548834	17.828547112653244	0	1
762.91887557187613	22.129869993904819	0	1
728.71931536123554	20.22768942445343	0	1
728.77926633447612	17.938254123031662	0	1
733.94956926785881	28.058588595542467	0	1
733.99153034701646	26.914247607251347	0	1
734.31788226592801	28.930507577602889	0	1
789.35720785595788	31.237338800415312	0	1
791.44923637536408	29.306304724981707	0	1
791.46009324554552	29.021524145922914	0	1
791.47012234792351	28.736713213996683	0	1
789.52513747302987	26.65764857745209	0	1
734.46467308558624	24.927303775141826	0	1
734.03349142617424	25.769906618960231	0	1
762.80297547720863	25.817870805317888	0	1
762.64530502476907	30.117778362289592	0	1
728.46753922198741	27.857571679209361	0	1
728.55146138030273	25.568889702627121	0	1
733.61550286491479	35.742811566911541	0	1
733.66944493510459	34.598972730925105	0	1
733.97466512080155	36.618539635303939	0	1
788.98681623112952	39.501604308579317	0	1
791.09895141524373	37.592583383989542	0	1
791.11278985088052	37.30793211043131	0	1
791.12580088194966	37.023241817464161	0	1
789.20269416784822	34.923923715633478	0	1
734.16336857781857	32.617092492821058	0	1
733.7233870052944	33.455133894938669	0	1
762.49079133665953	33.804363277507761	0	1
762.28810182573443	38.102383976880425	0	1
728.13587840798061	35.484399037304357	0	1
728.24376254836022	33.196721365331491	0	1
733.2009872549861	43.423114936207433	0	1
733.26690440085224	42.279903687343939	0	1
733.55095938250179	44.302556057480558	0	1
788.5299033108281	47.76153802068827	0	1
790.66191354022578	45.874739592599411	0	1
790.67873202377746	45.590248839761607	0	1
790.69472355673133	45.305710405252341	0	1
788.79370589374503	43.186369052022606	0	1
733.78155478341728	40.303304378747235	0	1
733.33282154671838	41.136692438480438	0	1
762.09499148835016	41.787148720323721	0	1
761.84730514612852	46.082811235693356	0	1
727.72436928956051	43.107335131172093	0	1
727.85620358129279	40.820912633445104	0	1
799.95613549240966	8.377427292996634	0	1
728.9600284674583	7.6339306207431825	0	1
799.82454677987641	16.753935906685566	0	1
728.84011825316236	15.267024094967223	0	1
799.60524829258532	25.128607262502634	0	1
728.64028250661829	22.898443367955526	0	1
799.29826407908672	33.500522983359694	0	1
728.36054314206774	30.527351568586521	0	1
798.90362780365911	41.868764994355054	0	1
728.00093083608431	38.152912101106047	0	1
728.66666666666663	0	0	20
727.22880944806718	45.753358563693013	0	20
728.33333333333337	0	0	20
726.89613387192446	45.732428390516574	0	20
[NumSegments] = 120
0	1	0.91428571428571415	0	0	2
2	0	0.91428571428571415	0	0	2
3	2	0.91428571428571415	0	0	2
6	5	0.91428571428571415	0	0	2
1	6	0.91428571428571415	0	0	2
7	8	0.91428571428571415	0	0	2
9	7	0.91428571428571415	0	0	2
10	9	0.91428571428571415	0	0	2
13	12	0.91428571428571415	0	0	2
8	13	0.91428571428571415	0	0	2
14	15	0.91428571428571415	0	0	2
16	14	0.91428571428571415	0	0	2
17	16	0.91428571428571415	0	0	2
20	19	0.91428571428571415	0	0	2
15	20	0.91428571428571415	0	0	2
21	0	0.91428571428571415	0	0	2
22	21	0.91428571428571415	0	0	2
25	24	0.91428571428571415	0	0	2
1	25	0.91428571428571415	0	0	2
26	7	0.91428571428571415	0	0	2
27	26	0.91428571428571415	0	0	2
30	29	0.91428571428571415	0	0	2
8	30	0.91428571428571415	0	0	2
31	14	0.91428571428571415	0	0	2
32	31	0.91428571428571415	0	0	2
35	34	0.91428571428571415	0	0	2
15	35	0.91428571428571415	0	0	2
36	37	-1	4	0	2
39	38	-1	4	0	2
37	40	-1	2	0	2
40	39	-1	2	0	2
41	42	-1	10	0	1
44	43	-1	10	0	1
45	46	0.91428571428571415	0	0	1
47	45	0.91428571428571415	0	0	1
48	56	0.91428571428571415	0	0	1
50	49	0.91428571428571415	0	0	1
51	50	0.91428571428571415	0	0	1
53	55	0.91428571428571415	0	0	1
54	53	0.91428571428571415	0	0	1
46	54	0.91428571428571415	0	0	1
55	52	0.91428571428571415	0	0	1
56	47	0.91428571428571415	0	0	1
55	56	0.91428571428571415	0	0	1
45	57	0.91428571428571415	0	0	1
58	54	0.91428571428571415	0	0	1
59	60	0.91428571428571415	0	0	1
61	59	0.91428571428571415	0	0	1
62	70	0.91428571428571415	0	0	1
64	63	0.91428571428571415	0	0	1
65	64	0.91428571428571415	0	0	1
67	69	0.91428571428571415	0	0	1
68	67	0.91428571428571415	0	0	1
60	68	0.91428571428571415	0	0	1
69	66	0.91428571428571415	0	0	1
70	61	0.91428571428571415	0	0	1
69	70	0.91428571428571415	0	0	1
59	71	0.91428571428571415	0	0	1
72	68	0.91428571428571415	0	0	1
73	74	0.91428571428571415	0	0	1
75	73	0.91428571428571415	0	0	1
76	84	0.91428571428571415	0	0	1
78	77	0.91428571428571415	0	0	1
79	78	0.91428571428571415	0	0	1
81	83	0.91428571428571415	0	0	1
82	81	0.91428571428571415	0	0	1
74	82	0.91428571428571415	0	0	1
83	80	0.91428571428571415	0	0	1
84	75	0.91428571428571415	0	0	1
83	84	0.91428571428571415	0	0	1
73	85	0.91428571428571415	0	0	1
86	82	0.91428571428571415	0	0	1
87	88	0.91428571428571415	0	0	1
89	87	0.91428571428571415	0	0	1
90	98	0.91428571428571415	0	0	1
92	91	0.91428571428571415	0	0	1
93	92	0.91428571428571415	0	0	1
95	97	0.91428571428571415	0	0	1
96	95	0.91428571428571415	0	0	1
88	96	0.91428571428571415	0	0	1
97	94	0.91428571428571415	0	0	1
98	89	0.91428571428571415	0	0	1
97	98	0.91428571428571415	0	0	1
87	99	0.91428571428571415	0	0	1
100	96	0.91428571428571415	0	0	1
101	102	0.91428571428571415	0	0	1
103	101	0.91428571428571415	0	0	1
104	112	0.91428571428571415	0	0	1
106	105	0.91428571428571415	0	0	1
107	106	0.91428571428571415	0	0	1
109	111	0.91428571428571415	0	0	1
110	109	0.91428571428571415	0	0	1
102	110	0.91428571428571415	0	0	1
111	108	0.91428571428571415	0	0	1
112	103	0.91428571428571415	0	0	1
111	112	0.91428571428571415	0	0	1
101	113	0.91428571428571415	0	0	1
114	110	0.91428571428571415	0	0	1
115	116	0.91428571428571415	0	0	1
117	115	0.91428571428571415	0	0	1
118	126	0.91428571428571415	0	0	1
120	119	0.91428571428571415	0	0	1
121	120	0.91428571428571415	0	0	1
123	125	0.91428571428571415	0	0	1
124	123	0.91428571428571415	0	0	1
116	124	0.91428571428571415	0	0	1
125	122	0.91428571428571415	0	0	1
126	117	0.91428571428571415	0	0	1
125	126	0.91428571428571415	0	0	1
115	127	0.91428571428571415	0	0	1
128	124	0.91428571428571415	0	0	1
129	130	0.91428571428571415	0	0	1
131	132	0.91428571428571415	0	0	1
133	134	0.91428571428571415	0	0	1
135	136	0.91428571428571415	0	0	1
137	138	0.91428571428571415	0	0	1
139	42	0.091428571428571415	7	0	20
140	44	0.091428571428571415	7	0	20
141	36	0.091428571428571415	5	0	20
142	38	0.091428571428571415	5	0	20
[NumArcSegments] = 52
3	4	88.718551600783556	10	0	0	2	10
4	5	91.281448399223237	10	0	0	2	10
10	11	89.24254949427042	4.1250414304929057	0	0	2	4.1250414304929057
11	12	90.757450505717458	10	0	0	2	10
17	18	89.765332438186533	3.5061460962684499	0	0	2	3.5061460962684499
18	19	90.234667561819649	7.686341236715041	0	0	2	7.686341236715041
23	22	88.718551600782348	10	0	0	2	10
24	23	91.281448399224104	10	0	0	2	10
28	27	89.242549494268687	4.1250414304891914	0	0	2	4.1250414304891914
29	28	90.757450505733175	10	0	0	2	10
33	32	89.765332438187073	3.5061460962981807	0	0	2	3.5061460962981807
34	33	90.234667561818469	7.686341236300855	0	0	2	7.686341236300855
36	38	3.5999999999999996	0.01798925573409178	0	0	2	0.01798925573409178
37	39	3.5999999999999996	0.018708825963455449	0	0	2	0.018708825963455449
41	129	0.59999999999999998	0.91428571428571415	1	0	1	0.059999999999999998
42	58	0.20999999999999999	0.017964579114429103	0	0	1	0.017964579114429103
49	48	90.216734069726044	6.5176370039247971	0	0	1	6.5176370039247971
52	51	90.216734069730521	6.5176370039246647	0	0	1	6.5176370039246647
57	130	0.21000000000000005	0.017964579114429103	0	0	1	0.017964579114429103
58	57	0.17999999999999991	0.017964579114429103	0	0	1	0.017964579114429103
63	62	90.216734069723032	6.5176370039247731	0	0	1	6.5176370039247731
66	65	90.216734069731686	6.5176370039246594	0	0	1	6.5176370039246594
71	132	0.21000000000000019	0.017964579114429103	0	0	1	0.017964579114429103
72	71	0.17999999999999994	0.017964579114429103	0	0	1	0.017964579114429103
77	76	90.216734069727096	6.51763700392479	0	0	1	6.51763700392479
80	79	90.216734069731444	6.5176370039246754	0	0	1	6.5176370039246754
85	134	0.20999999999999983	0.017964579114429103	0	0	1	0.017964579114429103
86	85	0.17999999999999997	0.017964579114429103	0	0	1	0.017964579114429103
91	90	90.216734069723714	6.5176370039249134	0	0	1	6.5176370039249134
94	93	90.216734069730862	6.5176370039246709	0	0	1	6.5176370039246709
99	136	0.2099999999999998	0.017964579114429103	0	0	1	0.017964579114429103
100	99	0.18000000000000058	0.017964579114429103	0	0	1	0.017964579114429103
105	104	90.216734069723671	6.5176370039247669	0	0	1	6.5176370039247669
108	107	90.216734069730748	6.5176370039246549	0	0	1	6.5176370039246549
113	138	0.21000000000000105	0.017964579114429103	0	0	1	0.017964579114429103
114	113	0.17999999999999902	0.017964579114429103	0	0	1	0.017964579114429103
119	118	90.216734069726257	6.517637003924948	0	0	1	6.517637003924948
122	121	90.216734069730933	6.5176370039246585	0	0	1	6.5176370039246585
127	44	0.21000000000000016	0.017964579114429103	0	0	1	0.017964579114429103
128	127	0.18000000000000016	0.017964579114429103	0	0	1	0.017964579114429103
129	131	0.59999999999999964	0.91428571428571415	1	0	1	0.10000000000000001
130	72	0.21000000000000005	0.017964579114429103	0	0	1	0.017964579114429103
131	133	0.59999999999999987	0.91428571428571415	1	0	1	0.12
132	86	0.21000000000000013	0.017964579114429103	0	0	1	0.017964579114429103
133	135	0.59999999999999931	0.91428571428571415	1	0	1	0.085999999999999993
134	100	0.20999999999999988	0.017964579114429103	0	0	1	0.017964579114429103
135	137	0.60000000000000009	0.91428571428571415	1	0	1	0.10000000000000001
136	114	0.21000000000000019	0.017964579114429103	0	0	1	0.017964579114429103
137	43	0.60000000000000087	0.91428571428571415	1	0	1	0.059999999999999998
138	128	0.21000000000000096	0.017964579114429103	0	0	1	0.017964579114429103
139	140	3.6000000000000001	0.091428571428571415	11	0	20	0.010999999999999999
141	142	3.6000000000000001	0.091428571428571415	11	0	20	0.010999999999999999
[NumHoles] = 0
[NumBlockLabels] = 34
726.30662424526429	29.470891725327505	7	0.91428571428571415	0	0	2	1	0
725.43661302279043	35.12795930106973	7	0.91428571428571415	0	0	2	1	0
724.47808094457628	41.923751349599613	7	0.91428571428571415	0	0	2	1	0
726.72391663370843	16.192432621449505	7	0.91428571428571415	0	0	2	1	0
726.21048685018309	10.491549379596837	7	0.91428571428571415	0	0	2	1	0
725.68090307096713	3.6493306872286517	7	0.91428571428571415	0	0	2	1	0
703.02466387062441	22.093440121835759	1	0.91428571428571415	0	0	22	1	0
349.82729612800608	10.993765677344902	7	0.91428571428571415	0	0	2	1	0
748.85050965610162	3.9210079319060354	3	0.91428571428571415	1	0	1	1	0
777.60203540413193	4.0715519444409258	3	0.91428571428571415	1	0	1	1	0
731.73237691523025	3.8313767793717313	7	0.91428571428571415	0	0	10	1	0
795.98508868378269	4.1678062659546598	1	0.91428571428571415	0	0	12	1	0
748.76838975893952	11.762593813012629	3	0.91428571428571415	1	0	1	1	0
777.51676257817132	12.214209341769848	3	0.91428571428571415	1	0	1	1	0
731.6521342142272	11.493710184475644	7	0.91428571428571415	0	0	10	1	0
795.89779994887192	12.502961750940008	1	0.91428571428571415	0	0	12	1	0
748.60415896998768	19.602889793155239	3	0.91428571428571415	3	0	1	-1	0
777.34622627737667	20.355527313402821	3	0.91428571428571415	3	0	1	-1	0
731.49165761173731	19.154783174735488	7	0.91428571428571415	0	0	10	1	0
795.7232320512436	20.836746145273793	1	0.91428571428571415	0	0	12	1	0
748.35783529900266	27.441036095527544	3	0.91428571428571415	3	0	1	-1	0
777.09044520297493	28.494613072079929	3	0.91428571428571415	3	0	1	-1	0
731.25096470582844	26.813755627165435	7	0.91428571428571415	0	0	10	1	0
795.46140413423518	29.168245555583965	1	0.91428571428571415	0	0	12	1	0
748.0294457581507	35.276173179059597	3	0.91428571428571415	2	0	1	1	0
776.74944740424314	36.630574075328582	3	0.91428571428571415	2	0	1	1	0
730.93008189119041	34.469787649127298	7	0.91428571428571415	0	0	10	1	0
795.11234491022822	37.496546339072708	1	0.91428571428571415	0	0	12	1	0