[Format]      =  4.0
[Frequency]   =  0
[Precision]   =  1e-008
[MinAngle]    =  15
[DoSmartMesh] =  1
[Depth]       =  300
[LengthUnits] =  millimeters
[ProblemType] =  planar
[Coordinates] =  cartesian
[ACSolver]    =  0
[PrevType]    =  0
[PrevSoln]    =  ""
[Comment]     =  "Add comments here."
[PointProps]   = 0
[BdryProps]   = 11
  <BeginBdry>
    <BdryName> = "A=0"
    <BdryType> = 0
    <A_0> = 0
    <A_1> = 0
    <A_2> = 0
    <Phi> = 0
    <c0> = 0
    <c0i> = 0
    <c1> = 0
    <c1i> = 0
    <Mu_ssd> = 0
    <Sigma_ssd> = 0
    <innerangle> = 0
    <outerangle> = 0
  <EndBdry>
  <BeginBdry>
    <BdryName> = "APr1"
    <BdryType> = 5
    <A_0> = 0
    <A_1> = 0
    <A_2> = 0
    <Phi> = 0
    <c0> = 0
    <c0i> = 0
    <c1> = 0
    <c1i> = 0
    <Mu_ssd> = 0
    <Sigma_ssd> = 0
    <innerangle> = 0
    <outerangle> = 0
  <EndBdry>
  <BeginBdry>
    <BdryName> = "APr2"
    <BdryType> = 5
    <A_0> = 0
    <A_1> = 0
    <A_2> = 0
    <Phi> = 0
    <c0> = 0
    <c0i> = 0
    <c1> = 0
    <c1i> = 0
    <Mu_ssd> = 0
    <Sigma_ssd> = 0
    <innerangle> = 0
    <outerangle> = 0
  <EndBdry>
  <BeginBdry>
    <BdryName> = "APr3"
    <BdryType> = 5
    <A_0> = 0
    <A_1> = 0
    <A_2> = 0
    <Phi> = 0
    <c0> = 0
    <c0i> = 0
    <c1> = 0
    <c1i> = 0
    <Mu_ssd> = 0
    <Sigma_ssd> = 0
    <innerangle> = 0
    <outerangle> = 0
  <EndBdry>
  <BeginBdry>
    <BdryName> = "APg1"
    <BdryType> = 5
    <A_0> = 0
    <A_1> = 0
    <A_2> = 0
    <Phi> = 0
    <c0> = 0
    <c0i> = 0
    <c1> = 0
    <c1i> = 0
    <Mu_ssd> = 0
    <Sigma_ssd> = 0
    <innerangle> = 0
    <outerangle> = 0
  <EndBdry>
  <BeginBdry>
    <BdryName> = "APg2"
    <BdryType> = 5
    <A_0> = 0
    <A_1> = 0
    <A_2> = 0
    <Phi> = 0
    <c0> = 0
    <c0i> = 0
    <c1> = 0
    <c1i> = 0
    <Mu_ssd> = 0
    <Sigma_ssd> = 0
    <innerangle> = 0
    <outerangle> = 0
  <EndBdry>
  <BeginBdry>
    <BdryName> = "APg3"
    <BdryType> = 5
    <A_0> = 0
    <A_1> = 0
    <A_2> = 0
    <Phi> = 0
    <c0> = 0
    <c0i> = 0
    <c1> = 0
    <c1i> = 0
    <Mu_ssd> = 0
    <Sigma_ssd> = 0
    <innerangle> = 0
    <outerangle> = 0
  <EndBdry>
  <BeginBdry>
    <BdryName> = "APs1"
    <BdryType> = 5
    <A_0> = 0
    <A_1> = 0
    <A_2> = 0
    <Phi> = 0
    <c0> = 0
    <c0i> = 0
    <c1> = 0
    <c1i> = 0
    <Mu_ssd> = 0
    <Sigma_ssd> = 0
    <innerangle> = 0
    <outerangle> = 0
  <EndBdry>
  <BeginBdry>
    <BdryName> = "APs2"
    <BdryType> = 5
    <A_0> = 0
    <A_1> = 0
    <A_2> = 0
    <Phi> = 0
    <c0> = 0
    <c0i> = 0
    <c1> = 0
    <c1i> = 0
    <Mu_ssd> = 0
    <Sigma_ssd> = 0
    <innerangle> = 0
    <outerangle> = 0
  <EndBdry>
  <BeginBdry>
    <BdryName> = "APs3"
    <BdryType> = 5
    <A_0> = 0
    <A_1> = 0
    <A_2> = 0
    <Phi> = 0
    <c0> = 0
    <c0i> = 0
    <c1> = 0
    <c1i> = 0
    <Mu_ssd> = 0
    <Sigma_ssd> = 0
    <innerangle> = 0
    <outerangle> = 0
  <EndBdry>
  <BeginBdry>
    <BdryName> = "AGap"
    <BdryType> = 7
    <A_0> = 0
    <A_1> = 0
    <A_2> = 0
    <Phi> = 0
    <c0> = 0
    <c0i> = 0
    <c1> = 0
    <c1i> = 0
    <Mu_ssd> = 0
    <Sigma_ssd> = 0
    <innerangle> = 0
    <outerangle> = 0
  <EndBdry>
[BlockProps]  = 9
  <BeginBlock>
    <BlockName> = "M270-35A"
    <Mu_x> = 1
    <Mu_y> = 1
    <H_c> = 0
    <H_cAngle> = 0
    <J_re> = 0
    <J_im> = 0
    <Sigma> = 0
    <d_lam> = 0
    <Phi_h> = 0
    <Phi_hx> = 0
    <Phi_hy> = 0
    <LamType> = 0
    <LamFill> = 1
    <NStrands> = 0
    <WireD> = 0
    <BHPoints> = 200
      0	0
      0.0045422769999999999	3.2767874890000002
      0.0090353559999999996	6.114592773
      0.013222249	8.4602422570000009
      0.017196487	10.462328400000001
      0.020991169	12.199266809999999
      0.024640190999999999	13.72982376
      0.028168996000000002	15.09561901
      0.031597466999999997	16.327217480000002
      0.034941272000000002	17.447599879999999
      0.038212956999999999	18.47443998
      0.041422729999999998	19.421601849999998
      0.044579012000000001	20.300151339999999
      0.047688851999999997	21.119056130000001
      0.050758219	21.885681389999998
      0.053792226999999998	22.60614816
      0.056795300999999999	23.285597330000002
      0.059771310000000001	23.928387470000001
      0.062723663999999998	24.538245379999999
      0.065655396000000005	25.11838217
      0.068569221	25.67158405
      0.071467592999999996	26.200284
      0.074352739000000001	26.70661905
      0.077226698999999996	27.19247648
      0.080091349000000006	27.65953137
      0.082948429000000004	28.109277410000001
      0.085799557999999998	28.54305239
      0.088646256000000007	28.96205934
      0.091489953999999998	29.36738437
      0.094332005999999996	29.760011540000001
      0.097173704999999999	30.140835630000002
      0.100016285	30.510672870000001
      0.102860934	30.870270300000001
      0.105708802	31.220313650000001
      0.108561001	31.561434299999998
      0.11141862	31.894215259999999
      0.114282722	32.21919639
      0.117154355	32.536878999999999
      0.120034552	32.847729870000002
      0.12292433699999999	33.152184810000001
      0.12582473199999999	33.45065185
      0.12873675200000001	33.743513989999997
      0.13166142	34.031131799999997
      0.13459976100000001	34.313845620000002
      0.137552811	34.591977620000002
      0.14052161499999999	34.865833639999998
      0.14350723800000001	35.135704879999999
      0.14651076099999999	35.401869419999997
      0.14953328699999999	35.664593680000003
      0.15257594699999999	35.924133650000002
      0.155639899	36.180736189999998
      0.158726334	36.434640119999997
      0.161836481	36.686077320000003
      0.16497160599999999	36.93527375
      0.16813302299999999	37.182450420000002
      0.17132209400000001	37.427824389999998
      0.17454023399999999	37.671609650000001
      0.17778891699999999	37.914018050000003
      0.18106968000000001	38.155260249999998
      0.18438413100000001	38.395546590000002
      0.18773395400000001	38.635088090000004
      0.191120915	38.87409736
      0.19454686800000001	39.112789630000002
      0.19801376800000001	39.351383830000003
      0.20152367299999999	39.590103640000002
      0.20507876	39.829178749999997
      0.208681327	40.068846100000002
      0.21233381500000001	40.309351300000003
      0.216038808	40.550950149999998
      0.21979905799999999	40.793910310000001
      0.22361749	41.038513199999997
      0.227497227	41.285056060000002
      0.2314416	41.53385428
      0.23545417299999999	41.785244059999997
      0.23953876299999999	42.039585369999998
      0.24369946200000001	42.297265359999997
      0.247940667	42.558702250000003
      0.25226710400000002	42.824349750000003
      0.25668386300000001	43.0947022
      0.26119642799999998	43.370300520000001
      0.26581071499999998	43.651739030000002
      0.27054201700000002	43.94020278
      0.275438138	44.23873004
      0.28051031599999998	44.548036490000001
      0.28576849199999999	44.868763260000001
      0.29122336399999998	45.201605100000002
      0.296886504	45.547319020000003
      0.30277045699999999	45.906731970000003
      0.30888884599999999	46.280749559999997
      0.31525650100000002	46.670366299999998
      0.321889598	47.076677459999999
      0.328805825	47.50089294
      0.33602457000000002	47.944353649999996
      0.34356714500000002	48.408550759999997
      0.351457032	48.895148689999999
      0.35972019	49.406012390000001
      0.36838539799999998	49.943240269999997
      0.37748466600000002	50.509203810000002
      0.38705371900000002	51.106595769999998
      0.39713256899999999	51.738489119999997
      0.40776619800000002	52.408409570000003
      0.41900536300000002	53.120425429999997
      0.43090757000000002	53.879259759999997
      0.44353822799999998	54.690431349999997
      0.45697202599999998	55.560433060000001
      0.47129457299999999	56.49695913
      0.486604327	57.509196449999997
      0.503014823	58.60819978
      0.520657166	59.807376320000003
      0.53968265500000001	61.123111049999999
      0.56026517099999995	62.575567960000001
      0.58260257699999995	64.189698669999999
      0.60691558199999995	65.996464399999994
      0.63344113800000001	68.034201780000004
      0.662415215	70.349880479999996
      0.69403682899999997	72.999622560000006
      0.72840307800000004	76.047204840000006
      0.76540934699999996	79.558509650000005
      0.80463064699999998	83.589963030000007
      0.84524547999999999	88.171938179999998
      0.88609953900000005	93.294734669999997
      0.92594964300000004	98.90894376
      0.963771241	104.9435902
      0.99893980100000002	111.3300564
      1.0312218310000001	118.0174305
      1.0606584889999999	124.9760964
      1.0874410889999999	132.19454709999999
      1.1118223309999999	139.6744898
      1.1340651580000001	147.42664859999999
      1.1544176930000001	155.46782519999999
      1.173103241	163.8190534
      1.1903180360000001	172.50453999999999
      1.2062325739999999	181.55112829999999
      1.220994358	190.98810510000001
      1.234730984	200.84723579999999
      1.2475531	211.16296399999999
      1.2595570490000001	221.97273730000001
      1.270827143	233.31744900000001
      1.281437594	245.2419931
      1.291454146	257.79594609999998
      1.3009354369999999	271.03439809999998
      1.309934159	285.01896390000002
      1.318498043	299.81902289999999
      1.326670706	315.51324579999999
      1.3344924010000001	332.19149570000002
      1.3420006879999999	349.95721329999998
      1.3492310569999999	368.93044570000001
      1.356217531	389.25173360000002
      1.362993272	411.08716509999999
      1.3695912379999999	434.63503709999998
      1.3760449050000001	460.1347695
      1.382389146	487.87903890000001
      1.3886613240000001	518.23060969999995
      1.394902732	551.64618570000005
      1.401160583	588.71104339999999
      1.4074908660000001	630.19074279999995
      1.4139626249999999	677.11087850000001
      1.420664664	730.8848299
      1.4277165590000001	793.52783980000004
      1.435287779	868.03580320000003
      1.4436331710000001	959.10175079999999
      1.453164339	1074.5891859999999
      1.464608755	1228.9034079999999
      1.479413587	1451.8548430000001
      1.5007295060000001	1812.597843
      1.531321148	2396.2922779999999
      1.5749716949999999	3340.7297119999998
      1.6351726849999999	4868.8615820000005
      1.6746062129999999	6056.7860730000002
      1.7053540309999999	7126.7301200000002
      1.7307497590000001	8135.9466300000004
      1.752580204	9119.3875740000003
      1.771845345	10098.25848
      1.789165838	11087.22133
      1.804957089	12097.58993
      1.819514077	13138.977849999999
      1.8330565510000001	14220.25051
      1.845754994	15350.15127
      1.8577465099999999	16537.778849999999
      1.869145125	17793.012470000001
      1.8800488470000001	19126.948680000001
      1.8905448170000001	20552.403480000001
      1.9007133519999999	22084.53774
      1.9106314310000001	23741.68173
      1.920376064	25546.46932
      1.930027954	27527.455720000002
      1.9396760099999999	29721.505959999999
      1.9494234969999999	32177.45292
      1.959397184	34961.935420000002
      1.969762051	38169.180130000001
      1.980746793	41938.394229999998
      1.9926918389999999	46487.096960000003
      2.0061495709999999	52181.595710000001
      2.022124024	59707.652569999998
      2.042772002	70576.241299999994
      2.0725625070000002	88161.987269999998
      2.1158769670000002	116616.322
      2.1803765140000002	162656.4026
      2.2792825830000001	237150.818
      2.3747656959999999	310949.48619999998
  <EndBlock>
  <BeginBlock>
    <BlockName> = "ShaftAir"
    <Mu_x> = 1
    <Mu_y> = 1
    <H_c> = 0
    <H_cAngle> = 0
    <J_re> = 0
    <J_im> = 0
    <Sigma> = 0
    <d_lam> = 0
    <Phi_h> = 0
    <Phi_hx> = 0
    <Phi_hy> = 0
    <LamType> = 0
    <LamFill> = 1
    <NStrands> = 0
    <WireD> = 0
    <BHPoints> = 3
      -100	-7.9577471545947675e-011
      0	0
      100	7.9577471545947675e-011
  <EndBlock>
  <BeginBlock>
    <BlockName> = "Copper"
    <Mu_x> = 1
    <Mu_y> = 1
    <H_c> = 0
    <H_cAngle> = 0
    <J_re> = 0
    <J_im> = 0
    <Sigma> = 58
    <d_lam> = 0
    <Phi_h> = 0
    <Phi_hx> = 0
    <Phi_hy> = 0
    <LamType> = 0
    <LamFill> = 1
    <NStrands> = 0
    <WireD> = 0
    <BHPoints> = 0
  <EndBlock>
  <BeginBlock>
    <BlockName> = "Aluminium"
    <Mu_x> = 1
    <Mu_y> = 1
    <H_c> = 0
    <H_cAngle> = 0
    <J_re> = 0
    <J_im> = 0
    <Sigma> = 29
    <d_lam> = 0
    <Phi_h> = 0
    <Phi_hx> = 0
    <Phi_hy> = 0
    <LamType> = 0
    <LamFill> = 1
    <NStrands> = 0
    <WireD> = 0
    <BHPoints> = 0
  <EndBlock>
  <BeginBlock>
    <BlockName> = "BMH-38EH"
    <Mu_x> = 1.05
    <Mu_y> = 1.05
    <H_c> = 954929.65855137201
    <H_cAngle> = 0
    <J_re> = 0
    <J_im> = 0
    <Sigma> = 0.66666666666666663
    <d_lam> = 0
    <Phi_h> = 0
    <Phi_hx> = 0
    <Phi_hy> = 0
    <LamType> = 0
    <LamFill> = 1
    <NStrands> = 0
    <WireD> = 0
    <BHPoints> = 0
  <EndBlock>
  <BeginBlock>
    <BlockName> = "DW235"
    <Mu_x> = 1
    <Mu_y> = 1
    <H_c> = 0
    <H_cAngle> = 0
    <J_re> = 0
    <J_im> = 0
    <Sigma> = 0
    <d_lam> = 0
    <Phi_h> = 0
    <Phi_hx> = 0
    <Phi_hy> = 0
    <LamType> = 0
    <LamFill> = 1
    <NStrands> = 0
    <WireD> = 0
    <BHPoints> = 0
  <EndBlock>
  <BeginBlock>
    <BlockName> = "Air"
    <Mu_x> = 1
    <Mu_y> = 1
    <H_c> = 0
    <H_cAngle> = 0
    <J_re> = 0
    <J_im> = 0
    <Sigma> = 0
    <d_lam> = 0
    <Phi_h> = 0
    <Phi_hx> = 0
    <Phi_hy> = 0
    <LamType> = 0
    <LamFill> = 1
    <NStrands> = 0
    <WireD> = 0
    <BHPoints> = 0
  <EndBlock>
  <BeginBlock>
    <BlockName> = "BMH-38EH_1"
    <Mu_x> = 1.05
    <Mu_y> = 1.05
    <H_c> = 954929.65855137201
    <H_cAngle> = 0
    <J_re> = 0
    <J_im> = 0
    <Sigma> = 0.66666666666666663
    <d_lam> = 0
    <Phi_h> = 0
    <Phi_hx> = 0
    <Phi_hy> = 0
    <LamType> = 0
    <LamFill> = 1
    <NStrands> = 0
    <WireD> = 0
    <BHPoints> = 0
  <EndBlock>
  <BeginBlock>
    <BlockName> = "BMH-38EH_2"
    <Mu_x> = 1.05
    <Mu_y> = 1.05
    <H_c> = 954929.65855137201
    <H_cAngle> = 0
    <J_re> = 0
    <J_im> = 0
    <Sigma> = 0.66666666666666663
    <d_lam> = 0
    <Phi_h> = 0
    <Phi_hx> = 0
    <Phi_hy> = 0
    <LamType> = 0
    <LamFill> = 1
    <NStrands> = 0
    <WireD> = 0
    <BHPoints> = 0
  <EndBlock>
[CircuitProps]  = 6
  <BeginCircuit>
    <CircuitName> = "fase1"
    <TotalAmps_re> = 0
    <TotalAmps_im> = 0
    <CircuitType> = 1
  <EndCircuit>
  <BeginCircuit>
    <CircuitName> = "fase2"
    <TotalAmps_re> = 0
    <TotalAmps_im> = 0
    <CircuitType> = 1
  <EndCircuit>
  <BeginCircuit>
    <CircuitName> = "fase3"
    <TotalAmps_re> = 0
    <TotalAmps_im> = 0
    <CircuitType> = 1
  <EndCircuit>
  <BeginCircuit>
    <CircuitName> = "fase1n"
    <TotalAmps_re> = 0
    <TotalAmps_im> = 0
    <CircuitType> = 1
  <EndCircuit>
  <BeginCircuit>
    <CircuitName> = "fase2n"
    <TotalAmps_re> = 0
    <TotalAmps_im> = 0
    <CircuitType> = 1
  <EndCircuit>
  <BeginCircuit>
    <CircuitName> = "fase3n"
    <TotalAmps_re> = 0
    <TotalAmps_im> = 0
    <CircuitType> = 1
  <EndCircuit>
[NumPoints] = 67
918.39660299205252	28.86177597893818	0	2
904.17766264455202	28.414927776723093	0	2
917.03685941631738	57.695068869509598	0	20
902.83897109876602	56.801813450306369	0	2
907.27315098516522	54.219779662325749	0	2
903.01296363699964	53.965185531454637	0	2
918.85000000000014	3.5527136788005009e-015	0	20
904.62404000000015	-3.5527136788005009e-015	0	2
908.88734280229608	2.8553631928629954	0	2
904.61957586296842	2.8419555634898082	0	2
811.86000000000001	0	0	2
810.25797974177658	50.97711118506836	0	2
0	0	0	2
1081	0	0	1
923.17399999999998	0	0	20
1078.8668934309615	67.87655161118775	0	1
921.35232699004109	57.966575075954346	0	20
932.70901730251501	11.737396104893218	0	1
932.7296427909705	9.7678790371353035	0	1
932.73499809425698	11.838584607895079	0	1
1064.1498348498862	13.21480786726622	0	1
1066.2398882209652	11.170063051797134	0	1
1066.2399341821747	11.166046648298304	0	1
1066.2399723442538	11.162030163124181	0	1
1064.1931992608975	9.0739630187070937	0	1
932.77836250526821	7.6977397593359536	0	1
932.750268279426	7.7983619693773898	0	1
999.5054656056717	8.3965298928122465	0	1
999.46210119466048	12.537374741371373	0	1
923.10065527510062	11.636773894851778	0	1
923.14190625201161	7.6977397593359518	0	1
932.25864932429408	31.268005769307649	0	1
932.32051674263948	29.299352596828804	0	1
932.28250528590172	31.369716180648211	0	1
1063.6396991508291	35.497782301755464	0	1
1065.7721160431452	33.497256707889896	0	1
1065.7722461074832	33.493242147793673	0	1
1065.7723683761117	33.489227342707409	0	1
1063.7697733627988	31.358753764603122	0	1
932.41257949787143	27.230687643495866	0	1
932.38238416098488	27.330699424349955	0	1
999.1104138855037	29.326751531476972	0	1
998.9803396735341	33.465780068629314	0	1
922.65450184202416	30.966183275410252	0	1
922.77823667871507	27.028876930452565	0	1
931.39936189104287	50.78490025297441	0	1
931.50244410218397	48.817974492120669	0	1
931.42108255850326	50.887087959105692	0	1
1062.6630159261035	57.765186235714488	0	1
1064.8368609911308	55.809757360095894	0	1
1064.8370751015466	55.80574640432102	0	1
1064.8372814230934	55.801735040348802	0	1
1062.8797428841833	53.629789524681492	0	1
931.63780951658305	46.751691248072696	0	1
931.60552631332484	46.851048731266943	0	1
998.2771193168976	50.244109487661788	0	1
998.06039235881792	54.379506198694784	0	1
921.8036416504234	50.282009864542211	0	1
922.00980607270549	46.348158342834736	0	1
1080.762918836308	22.638755893908872	0	1
922.97153268620696	19.333497533398177	0	1
1080.0517793368658	45.267581681264787	0	1
922.36421955368348	38.658514755800127	0	1
921.73266666666666	0	0	20
919.91383779879993	57.876073007139425	0	20
920.29133333333334	0	0	20
918.47534860755866	57.785570938324511	0	20
[NumSegments] = 56
0	1	0.9608888888888889	0	0	2
3	2	-1	4	0	2
5	4	0.9608888888888889	0	0	2
7	6	-1	4	0	2
9	8	0.9608888888888889	0	0	2
7	10	-1	3	0	2
11	3	-1	3	0	2
10	12	-1	2	0	2
12	11	-1	2	0	2
13	14	-1	10	0	1
16	15	-1	10	0	1
17	18	0.9608888888888889	0	0	1
19	17	0.9608888888888889	0	0	1
20	28	0.9608888888888889	0	0	1
22	21	0.9608888888888889	0	0	1
23	22	0.9608888888888889	0	0	1
25	27	0.9608888888888889	0	0	1
26	25	0.9608888888888889	0	0	1
18	26	0.9608888888888889	0	0	1
27	24	0.9608888888888889	0	0	1
28	19	0.9608888888888889	0	0	1
27	28	0.9608888888888889	0	0	1
17	29	0.9608888888888889	0	0	1
30	26	0.9608888888888889	0	0	1
31	32	0.9608888888888889	0	0	1
33	31	0.9608888888888889	0	0	1
34	42	0.9608888888888889	0	0	1
36	35	0.9608888888888889	0	0	1
37	36	0.9608888888888889	0	0	1
39	41	0.9608888888888889	0	0	1
40	39	0.9608888888888889	0	0	1
32	40	0.9608888888888889	0	0	1
41	38	0.9608888888888889	0	0	1
42	33	0.9608888888888889	0	0	1
41	42	0.9608888888888889	0	0	1
31	43	0.9608888888888889	0	0	1
44	40	0.9608888888888889	0	0	1
45	46	0.9608888888888889	0	0	1
47	45	0.9608888888888889	0	0	1
48	56	0.9608888888888889	0	0	1
50	49	0.9608888888888889	0	0	1
51	50	0.9608888888888889	0	0	1
53	55	0.9608888888888889	0	0	1
54	53	0.9608888888888889	0	0	1
46	54	0.9608888888888889	0	0	1
55	52	0.9608888888888889	0	0	1
56	47	0.9608888888888889	0	0	1
55	56	0.9608888888888889	0	0	1
45	57	0.9608888888888889	0	0	1
58	54	0.9608888888888889	0	0	1
59	60	0.9608888888888889	0	0	1
61	62	0.9608888888888889	0	0	1
63	14	0.09608888888888889	7	0	20
64	16	0.09608888888888889	7	0	20
65	6	0.09608888888888889	5	0	20
66	2	0.09608888888888889	5	0	20
[NumArcSegments] = 29
0	2	1.8000000000000003	0.014979288761590147	0	0	2	1
1	5	1.6199999999999997	0.015214850446144578	0	0	2	1
0	4	43.769938116926028	0.37055041018043128	0	0	2	1
5	3	0.17999999999999933	0.015214850446144578	0	0	2	1
6	0	1.7999999999999996	0.014979288761590147	0	0	2	1
7	9	0.17999999999999991	0.015214850446144575	0	0	2	1
8	0	43.769938116925978	0.37055041018043183	0	0	2	1
9	1	1.6200000000000001	0.015214850446144575	0	0	2	1
10	11	3.6000000000000001	0.016953316432127594	0	0	2	1
13	59	1.2	0.9608888888888889	1	0	1	1
14	30	0.47775729279554058	0.014909128158491367	0	0	1	1
21	20	89.944371551701522	6.6538727064840302	0	0	1	1
24	23	89.944371551698893	6.6538727064833756	0	0	1	1
29	60	0.47775729279554113	0.014909128158491367	0	0	1	1
30	29	0.24448541440891833	0.014909128158491367	0	0	1	1
35	34	89.944371551701821	6.6538727064841243	0	0	1	1
38	37	89.9443715516921	6.6538727064833534	0	0	1	1
43	62	0.47775729279553997	0.014909128158491367	0	0	1	1
44	43	0.24448541440891797	0.014909128158491367	0	0	1	1
49	48	89.944371551700556	6.6538727064836589	0	0	1	1
52	51	89.944371551693536	6.6538727064833409	0	0	1	1
57	16	0.4777572927955418	0.014909128158491367	0	0	1	1
58	57	0.24448541440891958	0.014909128158491367	0	0	1	1
59	61	1.2000000000000002	0.9608888888888889	1	0	1	1
60	44	0.47775729279554063	0.014909128158491367	0	0	1	1
61	15	1.2000000000000002	0.9608888888888889	1	0	1	1
62	58	0.47775729279554058	0.014909128158491367	0	0	1	1
63	64	3.6000000000000001	0.09608888888888889	11	0	20	1
65	66	3.6000000000000001	0.09608888888888889	11	0	20	1
[NumHoles] = 0
[NumBlockLabels] = 20
909.57949611035372	41.462843411568365	8	0.9608888888888889	0	-178.20000000000007	201	1	0
910.38812222742706	15.731943152598893	9	0.9608888888888889	0	-178.20000000000002	202	1	0
907.54048628431212	55.670461878399088	7	0.9608888888888889	0	0	2	1	0
909.24523966631625	1.4243296890882036	7	0.9608888888888889	0	0	2	1	0
857.81852937153747	26.958033320946164	1	0.9608888888888889	0	0	22	1	0
405.72969804926146	12.750569432584618	7	0.9608888888888889	0	0	2	1	0
966.10671309556835	10.117415677113557	3	0.9608888888888889	1	0	1	1	0
1032.8608537047637	10.816488957070062	3	0.9608888888888889	1	0	1	1	0
927.92651228740385	9.717578933433197	7	0.9608888888888889	0	0	10	1	0
1073.5903311331467	11.243022638980003	1	0.9608888888888889	0	0	12	1	0
965.68294676107928	30.347809198440977	3	0.9608888888888889	3	0	1	-1	0
1032.4078067979583	32.44472240166531	3	0.9608888888888889	3	0	1	-1	0
927.51949305085657	29.148474349010403	7	0.9608888888888889	0	0	10	1	0
1073.1194189314197	33.724136355625177	1	0.9608888888888889	0	0	12	1	0
964.83559997002089	50.564891167649478	3	0.9608888888888889	2	0	1	1	0
1031.5019117056945	54.058724518707081	3	0.9608888888888889	2	0	1	1	0
926.70563310985142	48.566584280372041	7	0.9608888888888889	0	0	10	1	0
1072.1778010856206	56.190457551471653	1	0.9608888888888889	0	0	12	1	0
921.99815829790373	28.974959414149705	7	0.09608888888888889	0	0	20	1	0
919.11691405322279	28.884412665980488	7	0.09608888888888889	0	0	20	1	0
