[Format]      =  4.0
[Frequency]   =  0
[Precision]   =  1e-008
[MinAngle]    =  15
[DoSmartMesh] =  1
[Depth]       =  300
[LengthUnits] =  millimeters
[ProblemType] =  planar
[Coordinates] =  cartesian
[ACSolver]    =  0
[PrevType]    =  0
[PrevSoln]    =  ""
[Comment]     =  "Add comments here."
[PointProps]   = 0
[BdryProps]   = 1
  <BeginBdry>
    <BdryName> = "A=0"
    <BdryType> = 0
    <A_0> = 0
    <A_1> = 0
    <A_2> = 0
    <Phi> = 0
    <c0> = 0
    <c0i> = 0
    <c1> = 0
    <c1i> = 0
    <Mu_ssd> = 0
    <Sigma_ssd> = 0
    <innerangle> = 0
    <outerangle> = 0
  <EndBdry>
[BlockProps]  = 7
  <BeginBlock>
    <BlockName> = "M270-35A"
    <Mu_x> = 1
    <Mu_y> = 1
    <H_c> = 0
    <H_cAngle> = 0
    <J_re> = 0
    <J_im> = 0
    <Sigma> = 0
    <d_lam> = 0
    <Phi_h> = 0
    <Phi_hx> = 0
    <Phi_hy> = 0
    <LamType> = 0
    <LamFill> = 1
    <NStrands> = 0
    <WireD> = 0
    <BHPoints> = 200
      0	0
      0.0045422769999999999	3.2767874890000002
      0.0090353559999999996	6.114592773
      0.013222249	8.4602422570000009
      0.017196487	10.462328400000001
      0.020991169	12.199266809999999
      0.024640190999999999	13.72982376
      0.028168996000000002	15.09561901
      0.031597466999999997	16.327217480000002
      0.034941272000000002	17.447599879999999
      0.038212956999999999	18.47443998
      0.041422729999999998	19.421601849999998
      0.044579012000000001	20.300151339999999
      0.047688851999999997	21.119056130000001
      0.050758219	21.885681389999998
      0.053792226999999998	22.60614816
      0.056795300999999999	23.285597330000002
      0.059771310000000001	23.928387470000001
      0.062723663999999998	24.538245379999999
      0.065655396000000005	25.11838217
      0.068569221	25.67158405
      0.071467592999999996	26.200284
      0.074352739000000001	26.70661905
      0.077226698999999996	27.19247648
      0.080091349000000006	27.65953137
      0.082948429000000004	28.109277410000001
      0.085799557999999998	28.54305239
      0.088646256000000007	28.96205934
      0.091489953999999998	29.36738437
      0.094332005999999996	29.760011540000001
      0.097173704999999999	30.140835630000002
      0.100016285	30.510672870000001
      0.102860934	30.870270300000001
      0.105708802	31.220313650000001
      0.108561001	31.561434299999998
      0.11141862	31.894215259999999
      0.114282722	32.21919639
      0.117154355	32.536878999999999
      0.120034552	32.847729870000002
      0.12292433699999999	33.152184810000001
      0.12582473199999999	33.45065185
      0.12873675200000001	33.743513989999997
      0.13166142	34.031131799999997
      0.13459976100000001	34.313845620000002
      0.137552811	34.591977620000002
      0.14052161499999999	34.865833639999998
      0.14350723800000001	35.135704879999999
      0.14651076099999999	35.401869419999997
      0.14953328699999999	35.664593680000003
      0.15257594699999999	35.924133650000002
      0.155639899	36.180736189999998
      0.158726334	36.434640119999997
      0.161836481	36.686077320000003
      0.16497160599999999	36.93527375
      0.16813302299999999	37.182450420000002
      0.17132209400000001	37.427824389999998
      0.17454023399999999	37.671609650000001
      0.17778891699999999	37.914018050000003
      0.18106968000000001	38.155260249999998
      0.18438413100000001	38.395546590000002
      0.18773395400000001	38.635088090000004
      0.191120915	38.87409736
      0.19454686800000001	39.112789630000002
      0.19801376800000001	39.351383830000003
      0.20152367299999999	39.590103640000002
      0.20507876	39.829178749999997
      0.208681327	40.068846100000002
      0.21233381500000001	40.309351300000003
      0.216038808	40.550950149999998
      0.21979905799999999	40.793910310000001
      0.22361749	41.038513199999997
      0.227497227	41.285056060000002
      0.2314416	41.53385428
      0.23545417299999999	41.785244059999997
      0.23953876299999999	42.039585369999998
      0.24369946200000001	42.297265359999997
      0.247940667	42.558702250000003
      0.25226710400000002	42.824349750000003
      0.25668386300000001	43.0947022
      0.26119642799999998	43.370300520000001
      0.26581071499999998	43.651739030000002
      0.27054201700000002	43.94020278
      0.275438138	44.23873004
      0.28051031599999998	44.548036490000001
      0.28576849199999999	44.868763260000001
      0.29122336399999998	45.201605100000002
      0.296886504	45.547319020000003
      0.30277045699999999	45.906731970000003
      0.30888884599999999	46.280749559999997
      0.31525650100000002	46.670366299999998
      0.321889598	47.076677459999999
      0.328805825	47.50089294
      0.33602457000000002	47.944353649999996
      0.34356714500000002	48.408550759999997
      0.351457032	48.895148689999999
      0.35972019	49.406012390000001
      0.36838539799999998	49.943240269999997
      0.37748466600000002	50.509203810000002
      0.38705371900000002	51.106595769999998
      0.39713256899999999	51.738489119999997
      0.40776619800000002	52.408409570000003
      0.41900536300000002	53.120425429999997
      0.43090757000000002	53.879259759999997
      0.44353822799999998	54.690431349999997
      0.45697202599999998	55.560433060000001
      0.47129457299999999	56.49695913
      0.486604327	57.509196449999997
      0.503014823	58.60819978
      0.520657166	59.807376320000003
      0.53968265500000001	61.123111049999999
      0.56026517099999995	62.575567960000001
      0.58260257699999995	64.189698669999999
      0.60691558199999995	65.996464399999994
      0.63344113800000001	68.034201780000004
      0.662415215	70.349880479999996
      0.69403682899999997	72.999622560000006
      0.72840307800000004	76.047204840000006
      0.76540934699999996	79.558509650000005
      0.80463064699999998	83.589963030000007
      0.84524547999999999	88.171938179999998
      0.88609953900000005	93.294734669999997
      0.92594964300000004	98.90894376
      0.963771241	104.9435902
      0.99893980100000002	111.3300564
      1.0312218310000001	118.0174305
      1.0606584889999999	124.9760964
      1.0874410889999999	132.19454709999999
      1.1118223309999999	139.6744898
      1.1340651580000001	147.42664859999999
      1.1544176930000001	155.46782519999999
      1.173103241	163.8190534
      1.1903180360000001	172.50453999999999
      1.2062325739999999	181.55112829999999
      1.220994358	190.98810510000001
      1.234730984	200.84723579999999
      1.2475531	211.16296399999999
      1.2595570490000001	221.97273730000001
      1.270827143	233.31744900000001
      1.281437594	245.2419931
      1.291454146	257.79594609999998
      1.3009354369999999	271.03439809999998
      1.309934159	285.01896390000002
      1.318498043	299.81902289999999
      1.326670706	315.51324579999999
      1.3344924010000001	332.19149570000002
      1.3420006879999999	349.95721329999998
      1.3492310569999999	368.93044570000001
      1.356217531	389.25173360000002
      1.362993272	411.08716509999999
      1.3695912379999999	434.63503709999998
      1.3760449050000001	460.1347695
      1.382389146	487.87903890000001
      1.3886613240000001	518.23060969999995
      1.394902732	551.64618570000005
      1.401160583	588.71104339999999
      1.4074908660000001	630.19074279999995
      1.4139626249999999	677.11087850000001
      1.420664664	730.8848299
      1.4277165590000001	793.52783980000004
      1.435287779	868.03580320000003
      1.4436331710000001	959.10175079999999
      1.453164339	1074.5891859999999
      1.464608755	1228.9034079999999
      1.479413587	1451.8548430000001
      1.5007295060000001	1812.597843
      1.531321148	2396.2922779999999
      1.5749716949999999	3340.7297119999998
      1.6351726849999999	4868.8615820000005
      1.6746062129999999	6056.7860730000002
      1.7053540309999999	7126.7301200000002
      1.7307497590000001	8135.9466300000004
      1.752580204	9119.3875740000003
      1.771845345	10098.25848
      1.789165838	11087.22133
      1.804957089	12097.58993
      1.819514077	13138.977849999999
      1.8330565510000001	14220.25051
      1.845754994	15350.15127
      1.8577465099999999	16537.778849999999
      1.869145125	17793.012470000001
      1.8800488470000001	19126.948680000001
      1.8905448170000001	20552.403480000001
      1.9007133519999999	22084.53774
      1.9106314310000001	23741.68173
      1.920376064	25546.46932
      1.930027954	27527.455720000002
      1.9396760099999999	29721.505959999999
      1.9494234969999999	32177.45292
      1.959397184	34961.935420000002
      1.969762051	38169.180130000001
      1.980746793	41938.394229999998
      1.9926918389999999	46487.096960000003
      2.0061495709999999	52181.595710000001
      2.022124024	59707.652569999998
      2.042772002	70576.241299999994
      2.0725625070000002	88161.987269999998
      2.1158769670000002	116616.322
      2.1803765140000002	162656.4026
      2.2792825830000001	237150.818
      2.3747656959999999	310949.48619999998
  <EndBlock>
  <BeginBlock>
    <BlockName> = "ShaftAir"
    <Mu_x> = 1
    <Mu_y> = 1
    <H_c> = 0
    <H_cAngle> = 0
    <J_re> = 0
    <J_im> = 0
    <Sigma> = 0
    <d_lam> = 0
    <Phi_h> = 0
    <Phi_hx> = 0
    <Phi_hy> = 0
    <LamType> = 0
    <LamFill> = 1
    <NStrands> = 0
    <WireD> = 0
    <BHPoints> = 3
      -100	-7.9577471545947675e-011
      0	0
      100	7.9577471545947675e-011
  <EndBlock>
  <BeginBlock>
    <BlockName> = "Copper"
    <Mu_x> = 1
    <Mu_y> = 1
    <H_c> = 0
    <H_cAngle> = 0
    <J_re> = 0
    <J_im> = 0
    <Sigma> = 58
    <d_lam> = 0
    <Phi_h> = 0
    <Phi_hx> = 0
    <Phi_hy> = 0
    <LamType> = 0
    <LamFill> = 1
    <NStrands> = 0
    <WireD> = 0
    <BHPoints> = 0
  <EndBlock>
  <BeginBlock>
    <BlockName> = "Aluminium"
    <Mu_x> = 1
    <Mu_y> = 1
    <H_c> = 0
    <H_cAngle> = 0
    <J_re> = 0
    <J_im> = 0
    <Sigma> = 29
    <d_lam> = 0
    <Phi_h> = 0
    <Phi_hx> = 0
    <Phi_hy> = 0
    <LamType> = 0
    <LamFill> = 1
    <NStrands> = 0
    <WireD> = 0
    <BHPoints> = 0
  <EndBlock>
  <BeginBlock>
    <BlockName> = "BMH-38EH"
    <Mu_x> = 1.05
    <Mu_y> = 1.05
    <H_c> = 954929.65855137201
    <H_cAngle> = 0
    <J_re> = 0
    <J_im> = 0
    <Sigma> = 0.66666666666666663
    <d_lam> = 0
    <Phi_h> = 0
    <Phi_hx> = 0
    <Phi_hy> = 0
    <LamType> = 0
    <LamFill> = 1
    <NStrands> = 0
    <WireD> = 0
    <BHPoints> = 0
  <EndBlock>
  <BeginBlock>
    <BlockName> = "DW235"
    <Mu_x> = 1
    <Mu_y> = 1
    <H_c> = 0
    <H_cAngle> = 0
    <J_re> = 0
    <J_im> = 0
    <Sigma> = 0
    <d_lam> = 0
    <Phi_h> = 0
    <Phi_hx> = 0
    <Phi_hy> = 0
    <LamType> = 0
    <LamFill> = 1
    <NStrands> = 0
    <WireD> = 0
    <BHPoints> = 0
  <EndBlock>
  <BeginBlock>
    <BlockName> = "Air"
    <Mu_x> = 1
    <Mu_y> = 1
    <H_c> = 0
    <H_cAngle> = 0
    <J_re> = 0
    <J_im> = 0
    <Sigma> = 0
    <d_lam> = 0
    <Phi_h> = 0
    <Phi_hx> = 0
    <Phi_hy> = 0
    <LamType> = 0
    <LamFill> = 1
    <NStrands> = 0
    <WireD> = 0
    <BHPoints> = 0
  <EndBlock>
[CircuitProps]  = 22
  <BeginCircuit>
    <CircuitName> = "conductor_1"
    <TotalAmps_re> = 0
    <TotalAmps_im> = 0
    <CircuitType> = 1
  <EndCircuit>
  <BeginCircuit>
    <CircuitName> = "conductor_2"
    <TotalAmps_re> = 0
    <TotalAmps_im> = 0
    <CircuitType> = 1
  <EndCircuit>
  <BeginCircuit>
    <CircuitName> = "conductor_3"
    <TotalAmps_re> = 0
    <TotalAmps_im> = 0
    <CircuitType> = 1
  <EndCircuit>
  <BeginCircuit>
    <CircuitName> = "conductor_4"
    <TotalAmps_re> = 0
    <TotalAmps_im> = 0
    <CircuitType> = 1
  <EndCircuit>
  <BeginCircuit>
    <CircuitName> = "conductor_5"
    <TotalAmps_re> = 0
    <TotalAmps_im> = 0
    <CircuitType> = 1
  <EndCircuit>
  <BeginCircuit>
    <CircuitName> = "conductor_6"
    <TotalAmps_re> = 0
    <TotalAmps_im> = 0
    <CircuitType> = 1
  <EndCircuit>
  <BeginCircuit>
    <CircuitName> = "conductor_7"
    <TotalAmps_re> = 0
    <TotalAmps_im> = 0
    <CircuitType> = 1
  <EndCircuit>
  <BeginCircuit>
    <CircuitName> = "conductor_8"
    <TotalAmps_re> = 0
    <TotalAmps_im> = 0
    <CircuitType> = 1
  <EndCircuit>
  <BeginCircuit>
    <CircuitName> = "conductor_9"
    <TotalAmps_re> = 0
    <TotalAmps_im> = 0
    <CircuitType> = 1
  <EndCircuit>
  <BeginCircuit>
    <CircuitName> = "conductor_10"
    <TotalAmps_re> = 0
    <TotalAmps_im> = 0
    <CircuitType> = 1
  <EndCircuit>
  <BeginCircuit>
    <CircuitName> = "conductor_11"
    <TotalAmps_re> = 0
    <TotalAmps_im> = 0
    <CircuitType> = 1
  <EndCircuit>
  <BeginCircuit>
    <CircuitName> = "conductor_12"
    <TotalAmps_re> = 0
    <TotalAmps_im> = 0
    <CircuitType> = 1
  <EndCircuit>
  <BeginCircuit>
    <CircuitName> = "conductor_13"
    <TotalAmps_re> = 0
    <TotalAmps_im> = 0
    <CircuitType> = 1
  <EndCircuit>
  <BeginCircuit>
    <CircuitName> = "conductor_14"
    <TotalAmps_re> = 0
    <TotalAmps_im> = 0
    <CircuitType> = 1
  <EndCircuit>
  <BeginCircuit>
    <CircuitName> = "conductor_15"
    <TotalAmps_re> = 0
    <TotalAmps_im> = 0
    <CircuitType> = 1
  <EndCircuit>
  <BeginCircuit>
    <CircuitName> = "conductor_16"
    <TotalAmps_re> = 0
    <TotalAmps_im> = 0
    <CircuitType> = 1
  <EndCircuit>
  <BeginCircuit>
    <CircuitName> = "conductor_17"
    <TotalAmps_re> = 0
    <TotalAmps_im> = 0
    <CircuitType> = 1
  <EndCircuit>
  <BeginCircuit>
    <CircuitName> = "conductor_18"
    <TotalAmps_re> = 0
    <TotalAmps_im> = 0
    <CircuitType> = 1
  <EndCircuit>
  <BeginCircuit>
    <CircuitName> = "conductor_19"
    <TotalAmps_re> = 0
    <TotalAmps_im> = 0
    <CircuitType> = 1
  <EndCircuit>
  <BeginCircuit>
    <CircuitName> = "conductor_20"
    <TotalAmps_re> = 0
    <TotalAmps_im> = 0
    <CircuitType> = 1
  <EndCircuit>
  <BeginCircuit>
    <CircuitName> = "conductor_21"
    <TotalAmps_re> = 0
    <TotalAmps_im> = 0
    <CircuitType> = 1
  <EndCircuit>
  <BeginCircuit>
    <CircuitName> = "conductor_22"
    <TotalAmps_re> = 0
    <TotalAmps_im> = 0
    <CircuitType> = 1
  <EndCircuit>
[NumPoints] = 103
932.78078775340111	1.9696250635498522	0	1
923.17189886451217	1.9696250635498505	0	1
932.80782674475824	2.0705359530796006	0	1
1064.2298694543749	2.0705359530796006	0	1
1066.298396100221	0.0040166645727435224	0	1
1066.2984000000001	1.7763568394002505e-015	0	1
1066.2983961002212	-0.0040166645727452988	0	1
1064.2298694543751	-2.0705359530796006	0	1
932.80782674475836	-2.0705359530795997	0	1
932.78078775340123	-1.9696250635498513	0	1
923.1718988645124	-1.9696250635498513	0	1
923.12338178383732	9.6672788297310923	0	1
918.79961887150091	9.6219988352124464	0	1
923.12338178383732	-9.6672788297310923	0	1
918.79961887150091	-9.6219988352124464	0	1
1062.6286891032748	0	0	3
1064.1192792788249	1.4905901755502009	0	3
1065.609869454375	0	0	3
1064.1192792788249	-1.4905901755502009	0	3
1057.0494410748263	0	0	3
1058.5400312503764	1.4905901755502009	0	3
1060.0306214259265	0	0	3
1058.5400312503764	-1.4905901755502009	0	3
1051.4701930463777	0	0	3
1052.9607832219278	1.4905901755502009	0	3
1054.4513733974779	0	0	3
1052.9607832219278	-1.4905901755502009	0	3
1045.8909450179292	0	0	3
1047.3815351934793	1.4905901755502009	0	3
1048.8721253690294	0	0	3
1047.3815351934793	-1.4905901755502009	0	3
1040.3116969894807	0	0	3
1041.8022871650307	1.4905901755502009	0	3
1043.2928773405808	0	0	3
1041.8022871650307	-1.4905901755502009	0	3
1034.7324489610321	0	0	3
1036.2230391365822	1.4905901755502009	0	3
1037.7136293121323	0	0	3
1036.2230391365822	-1.4905901755502009	0	3
1029.1532009325836	0	0	3
1030.6437911081337	1.4905901755502009	0	3
1032.1343812836838	0	0	3
1030.6437911081337	-1.4905901755502009	0	3
1023.5739529041349	0	0	3
1025.0645430796851	1.4905901755502009	0	3
1026.5551332552352	0	0	3
1025.0645430796851	-1.4905901755502009	0	3
1017.9947048756864	0	0	3
1019.4852950512366	1.4905901755502009	0	3
1020.9758852267868	0	0	3
1019.4852950512366	-1.4905901755502009	0	3
1012.4154568472378	0	0	3
1013.906047022788	1.4905901755502009	0	3
1015.3966371983382	0	0	3
1013.906047022788	-1.4905901755502009	0	3
1006.8362088187893	0	0	3
1008.3267989943395	1.4905901755502009	0	3
1009.8173891698897	0	0	3
1008.3267989943395	-1.4905901755502009	0	3
1001.2569607903407	0	0	3
1002.7475509658909	1.4905901755502009	0	3
1004.2381411414411	0	0	3
1002.7475509658909	-1.4905901755502009	0	3
995.67771276189217	0	0	3
997.16830293744238	1.4905901755502009	0	3
998.65889311299259	0	0	3
997.16830293744238	-1.4905901755502009	0	3
990.09846473344362	0	0	3
991.58905490899383	1.4905901755502009	0	3
993.07964508454404	0	0	3
991.58905490899383	-1.4905901755502009	0	3
984.51921670499507	0	0	3
986.00980688054528	1.4905901755502009	0	3
987.50039705609549	0	0	3
986.00980688054528	-1.4905901755502009	0	3
978.93996867654653	0	0	3
980.43055885209674	1.4905901755502009	0	3
981.92114902764695	0	0	3
980.43055885209674	-1.4905901755502009	0	3
973.36072064809798	0	0	3
974.85131082364819	1.4905901755502009	0	3
976.3419009991984	0	0	3
974.85131082364819	-1.4905901755502009	0	3
967.78147261964943	0	0	3
969.27206279519964	1.4905901755502009	0	3
970.76265297074985	0	0	3
969.27206279519964	-1.4905901755502009	0	3
962.20222459120089	0	0	3
963.6928147667511	1.4905901755502009	0	3
965.18340494230131	0	0	3
963.6928147667511	-1.4905901755502009	0	3
956.62297656275234	0	0	3
958.11356673830255	1.4905901755502009	0	3
959.60415691385276	0	0	3
958.11356673830255	-1.4905901755502009	0	3
951.0437285343038	0	0	3
952.53431870985401	1.4905901755502009	0	3
954.02490888540422	0	0	3
952.53431870985401	-1.4905901755502009	0	3
945.46448050585525	0	0	3
946.95507068140546	1.4905901755502009	0	3
948.44566085695567	0	0	3
946.95507068140546	-1.4905901755502009	0	3
[NumSegments] = 10
0	1	0.09608888888888889	0	0	1
2	0	0.09608888888888889	0	0	1
3	2	0.09608888888888889	0	0	3
5	4	0.09608888888888889	0	0	3
6	5	0.09608888888888889	0	0	1
8	7	0.09608888888888889	0	0	3
9	8	0.09608888888888889	0	0	1
10	9	0.09608888888888889	0	0	1
11	12	0.09608888888888889	0	0	1
14	13	0.09608888888888889	0	0	1
[NumArcSegments] = 94
4	3	89.944371551700257	0.66538727064839909	0	0	1	1
7	6	89.944371551693877	0.66538727064833758	0	0	1	1
13	10	0.47775729279554074	0.09608888888888889	1	0	1	1
10	1	0.24448541440891841	0.0014909128158491368	0	0	1	1
1	11	0.47775729279554063	0.09608888888888889	1	0	1	1
14	12	1.1999999999999997	0.0014979288761590151	0	0	1	1
16	15	90	0.92337382228530374	0	0	3	1
17	16	90	0.92337382228536835	0	0	3	1
18	17	90	0.92337382228530374	0	0	3	1
15	18	90	0.92337382228536835	0	0	3	1
20	19	90	0.92337382228530374	0	0	3	1
21	20	90	0.92337382228536835	0	0	3	1
22	21	90	0.92337382228530374	0	0	3	1
19	22	90	0.92337382228536835	0	0	3	1
24	23	90	0.92337382228530374	0	0	3	1
25	24	90	0.92337382228536835	0	0	3	1
26	25	90	0.92337382228530374	0	0	3	1
23	26	90	0.92337382228536835	0	0	3	1
28	27	90	0.92337382228530374	0	0	3	1
29	28	90	0.92337382228536835	0	0	3	1
30	29	90	0.92337382228530374	0	0	3	1
27	30	90	0.92337382228536835	0	0	3	1
32	31	90	0.92337382228530374	0	0	3	1
33	32	90	0.92337382228536835	0	0	3	1
34	33	90	0.92337382228530374	0	0	3	1
31	34	90	0.92337382228536835	0	0	3	1
36	35	90	0.92337382228530374	0	0	3	1
37	36	90	0.92337382228536835	0	0	3	1
38	37	90	0.92337382228530374	0	0	3	1
35	38	90	0.92337382228536835	0	0	3	1
40	39	90	0.92337382228530374	0	0	3	1
41	40	90	0.92337382228536835	0	0	3	1
42	41	90	0.92337382228530374	0	0	3	1
39	42	90	0.92337382228536835	0	0	3	1
44	43	90	0.92337382228530374	0	0	3	1
45	44	90	0.92337382228536835	0	0	3	1
46	45	90	0.92337382228530374	0	0	3	1
43	46	90	0.92337382228529807	0	0	3	1
48	47	90	0.92337382228530374	0	0	3	1
49	48	90	0.92337382228529807	0	0	3	1
50	49	90	0.92337382228530374	0	0	3	1
47	50	90	0.92337382228529807	0	0	3	1
52	51	90	0.92337382228530374	0	0	3	1
53	52	90	0.92337382228529807	0	0	3	1
54	53	90	0.92337382228530374	0	0	3	1
51	54	90	0.92337382228529807	0	0	3	1
56	55	90	0.92337382228530374	0	0	3	1
57	56	90	0.92337382228529807	0	0	3	1
58	57	90	0.92337382228530374	0	0	3	1
55	58	90	0.92337382228529807	0	0	3	1
60	59	90	0.92337382228530374	0	0	3	1
61	60	90	0.92337382228529807	0	0	3	1
62	61	90	0.92337382228530374	0	0	3	1
59	62	90	0.92337382228529807	0	0	3	1
64	63	90	0.92337382228530374	0	0	3	1
65	64	90	0.92337382228529807	0	0	3	1
66	65	90	0.92337382228530374	0	0	3	1
63	66	90	0.92337382228529807	0	0	3	1
68	67	90	0.92337382228530374	0	0	3	1
69	68	90	0.92337382228529807	0	0	3	1
70	69	90	0.92337382228530374	0	0	3	1
67	70	90	0.92337382228529807	0	0	3	1
72	71	90	0.92337382228530374	0	0	3	1
73	72	90	0.92337382228529807	0	0	3	1
74	73	90	0.92337382228530374	0	0	3	1
71	74	90	0.92337382228529807	0	0	3	1
76	75	90	0.92337382228530374	0	0	3	1
77	76	90	0.92337382228529807	0	0	3	1
78	77	90	0.92337382228530374	0	0	3	1
75	78	90	0.92337382228529807	0	0	3	1
80	79	90	0.92337382228530374	0	0	3	1
81	80	90	0.92337382228529807	0	0	3	1
82	81	90	0.92337382228530374	0	0	3	1
79	82	90	0.92337382228529807	0	0	3	1
84	83	90	0.92337382228530374	0	0	3	1
85	84	90	0.92337382228529807	0	0	3	1
86	85	90	0.92337382228530374	0	0	3	1
83	86	90	0.92337382228529807	0	0	3	1
88	87	90	0.92337382228530374	0	0	3	1
89	88	90	0.92337382228529807	0	0	3	1
90	89	90	0.92337382228530374	0	0	3	1
87	90	90	0.92337382228529807	0	0	3	1
92	91	90	0.92337382228530374	0	0	3	1
93	92	90	0.92337382228529807	0	0	3	1
94	93	90	0.92337382228530374	0	0	3	1
91	94	90	0.92337382228529807	0	0	3	1
96	95	90	0.92337382228530374	0	0	3	1
97	96	90	0.92337382228529807	0	0	3	1
98	97	90	0.92337382228530374	0	0	3	1
95	98	90	0.92337382228529807	0	0	3	1
100	99	90	0.92337382228530374	0	0	3	1
101	100	90	0.92337382228529807	0	0	3	1
102	101	90	0.92337382228530374	0	0	3	1
99	102	90	0.92337382228529807	0	0	3	1
[NumHoles] = 0
[NumBlockLabels] = 24
921.01200000000006	0	7	0.09608888888888889	0	0	1	1	0
927.97844444444445	0	7	0.09608888888888889	0	0	1	1	0
1064.1192792788249	0	3	0.09608888888888889	1	0	3	1	0
1058.5400312503764	0	3	0.09608888888888889	2	0	3	1	0
1052.9607832219278	0	3	0.09608888888888889	3	0	3	1	0
1047.3815351934793	0	3	0.09608888888888889	4	0	3	1	0
1041.8022871650307	0	3	0.09608888888888889	5	0	3	1	0
1036.2230391365822	0	3	0.09608888888888889	6	0	3	1	0
1030.6437911081337	0	3	0.09608888888888889	7	0	3	1	0
1025.0645430796851	0	3	0.09608888888888889	8	0	3	1	0
1019.4852950512366	0	3	0.09608888888888889	9	0	3	1	0
1013.906047022788	0	3	0.09608888888888889	10	0	3	1	0
1008.3267989943395	0	3	0.09608888888888889	11	0	3	1	0
1002.7475509658909	0	3	0.09608888888888889	12	0	3	1	0
997.16830293744238	0	3	0.09608888888888889	13	0	3	1	0
991.58905490899383	0	3	0.09608888888888889	14	0	3	1	0
986.00980688054528	0	3	0.09608888888888889	15	0	3	1	0
980.43055885209674	0	3	0.09608888888888889	16	0	3	1	0
974.85131082364819	0	3	0.09608888888888889	17	0	3	1	0
969.27206279519964	0	3	0.09608888888888889	18	0	3	1	0
963.6928147667511	0	3	0.09608888888888889	19	0	3	1	0
958.11356673830255	0	3	0.09608888888888889	20	0	3	1	0
952.53431870985401	0	3	0.09608888888888889	21	0	3	1	0
946.95507068140546	0	3	0.09608888888888889	22	0	3	1	0
