[Format]      =  4.0
[Frequency]   =  0
[Precision]   =  1e-008
[MinAngle]    =  15
[DoSmartMesh] =  1
[Depth]       =  300
[LengthUnits] =  millimeters
[ProblemType] =  planar
[Coordinates] =  cartesian
[ACSolver]    =  0
[PrevType]    =  0
[PrevSoln]    =  ""
[Comment]     =  "Add comments here."
[PointProps]   = 0
[BdryProps]   = 11
  <BeginBdry>
    <BdryName> = "A=0"
    <BdryType> = 0
    <A_0> = 0
    <A_1> = 0
    <A_2> = 0
    <Phi> = 0
    <c0> = 0
    <c0i> = 0
    <c1> = 0
    <c1i> = 0
    <Mu_ssd> = 0
    <Sigma_ssd> = 0
    <innerangle> = 0
    <outerangle> = 0
  <EndBdry>
  <BeginBdry>
    <BdryName> = "APr1"
    <BdryType> = 5
    <A_0> = 0
    <A_1> = 0
    <A_2> = 0
    <Phi> = 0
    <c0> = 0
    <c0i> = 0
    <c1> = 0
    <c1i> = 0
    <Mu_ssd> = 0
    <Sigma_ssd> = 0
    <innerangle> = 0
    <outerangle> = 0
  <EndBdry>
  <BeginBdry>
    <BdryName> = "APr2"
    <BdryType> = 5
    <A_0> = 0
    <A_1> = 0
    <A_2> = 0
    <Phi> = 0
    <c0> = 0
    <c0i> = 0
    <c1> = 0
    <c1i> = 0
    <Mu_ssd> = 0
    <Sigma_ssd> = 0
    <innerangle> = 0
    <outerangle> = 0
  <EndBdry>
  <BeginBdry>
    <BdryName> = "APr3"
    <BdryType> = 5
    <A_0> = 0
    <A_1> = 0
    <A_2> = 0
    <Phi> = 0
    <c0> = 0
    <c0i> = 0
    <c1> = 0
    <c1i> = 0
    <Mu_ssd> = 0
    <Sigma_ssd> = 0
    <innerangle> = 0
    <outerangle> = 0
  <EndBdry>
  <BeginBdry>
    <BdryName> = "APg1"
    <BdryType> = 5
    <A_0> = 0
    <A_1> = 0
    <A_2> = 0
    <Phi> = 0
    <c0> = 0
    <c0i> = 0
    <c1> = 0
    <c1i> = 0
    <Mu_ssd> = 0
    <Sigma_ssd> = 0
    <innerangle> = 0
    <outerangle> = 0
  <EndBdry>
  <BeginBdry>
    <BdryName> = "APg2"
    <BdryType> = 5
    <A_0> = 0
    <A_1> = 0
    <A_2> = 0
    <Phi> = 0
    <c0> = 0
    <c0i> = 0
    <c1> = 0
    <c1i> = 0
    <Mu_ssd> = 0
    <Sigma_ssd> = 0
    <innerangle> = 0
    <outerangle> = 0
  <EndBdry>
  <BeginBdry>
    <BdryName> = "APg3"
    <BdryType> = 5
    <A_0> = 0
    <A_1> = 0
    <A_2> = 0
    <Phi> = 0
    <c0> = 0
    <c0i> = 0
    <c1> = 0
    <c1i> = 0
    <Mu_ssd> = 0
    <Sigma_ssd> = 0
    <innerangle> = 0
    <outerangle> = 0
  <EndBdry>
  <BeginBdry>
    <BdryName> = "APs1"
    <BdryType> = 5
    <A_0> = 0
    <A_1> = 0
    <A_2> = 0
    <Phi> = 0
    <c0> = 0
    <c0i> = 0
    <c1> = 0
    <c1i> = 0
    <Mu_ssd> = 0
    <Sigma_ssd> = 0
    <innerangle> = 0
    <outerangle> = 0
  <EndBdry>
  <BeginBdry>
    <BdryName> = "APs2"
    <BdryType> = 5
    <A_0> = 0
    <A_1> = 0
    <A_2> = 0
    <Phi> = 0
    <c0> = 0
    <c0i> = 0
    <c1> = 0
    <c1i> = 0
    <Mu_ssd> = 0
    <Sigma_ssd> = 0
    <innerangle> = 0
    <outerangle> = 0
  <EndBdry>
  <BeginBdry>
    <BdryName> = "APs3"
    <BdryType> = 5
    <A_0> = 0
    <A_1> = 0
    <A_2> = 0
    <Phi> = 0
    <c0> = 0
    <c0i> = 0
    <c1> = 0
    <c1i> = 0
    <Mu_ssd> = 0
    <Sigma_ssd> = 0
    <innerangle> = 0
    <outerangle> = 0
  <EndBdry>
  <BeginBdry>
    <BdryName> = "AGap"
    <BdryType> = 7
    <A_0> = 0
    <A_1> = 0
    <A_2> = 0
    <Phi> = 0
    <c0> = 0
    <c0i> = 0
    <c1> = 0
    <c1i> = 0
    <Mu_ssd> = 0
    <Sigma_ssd> = 0
    <innerangle> = 0
    <outerangle> = 0
  <EndBdry>
[BlockProps]  = 7
  <BeginBlock>
    <BlockName> = "M600-50A"
    <Mu_x> = 1
    <Mu_y> = 1
    <H_c> = 0
    <H_cAngle> = 0
    <J_re> = 0
    <J_im> = 0
    <Sigma> = 0
    <d_lam> = 0
    <Phi_h> = 0
    <Phi_hx> = 0
    <Phi_hy> = 0
    <LamType> = 0
    <LamFill> = 1
    <NStrands> = 0
    <WireD> = 0
    <BHPoints> = 208
      0	0
      0.0061294119999999999	8.2635015680000006
      0.012398954	15.54584049
      0.018188152999999999	21.42337126
      0.023698273999999998	26.396066560000001
      0.028962854999999999	30.670770340000001
      0.034031080999999998	34.409892589999998
      0.038937833999999998	37.72521158
      0.043710287	40.697869570000002
      0.048369641999999997	43.388214720000001
      0.052932743999999997	45.842257519999997
      0.057413198999999998	48.095830579999998
      0.061822165999999998	50.17736026
      0.066168929000000001	52.109762629999999
      0.070461307000000001	53.911772880000001
      0.074705967999999998	55.598898519999999
      0.078908651999999996	57.184116670000002
      0.083074354000000003	58.67839326
      0.087207454000000004	60.091076020000003
      0.091311829999999997	61.430196219999999
      0.095390935999999996	62.702703470000003
      0.099447875000000005	63.914650479999999
      0.10348545000000001	65.071340269999993
      0.107506212	66.177444339999994
      0.111512495	67.237098649999993
      0.115506446	68.253982050000005
      0.119490053	69.231381029999994
      0.123465163	70.172243330000001
      0.127433505	71.079222909999999
      0.131396704	71.954717669999994
      0.13535628999999999	72.800901379999999
      0.139313718	73.619750830000001
      0.14327037200000001	74.413069070000006
      0.147227575	75.182505329999998
      0.151186599	75.929572239999999
      0.15514867099999999	76.655660710000006
      0.15911497799999999	77.362052919999996
      0.16308667299999999	78.049933670000001
      0.167064883	78.720400249999997
      0.171050709	79.374471249999999
      0.17504523399999999	80.013094219999999
      0.17904952399999999	80.637152520000001
      0.183064634	81.247471390000001
      0.18709161099999999	81.844823349999999
      0.19113149500000001	82.429933079999998
      0.19518532499999999	83.003481679999993
      0.19925414	83.566110629999997
      0.203338983	84.118425299999998
      0.20744090200000001	84.6609981
      0.21156095499999999	85.194371430000004
      0.21570021	85.719060249999998
      0.21985974999999999	86.23555451
      0.224040674	86.744321339999999
      0.228244101	87.245807119999995
      0.232471172	87.740439260000002
      0.23672305199999999	88.228628009999994
      0.241000933	88.710768049999999
      0.245306038	89.187239969999993
      0.249639624	89.658411700000002
      0.25400298399999999	90.124639849999994
      0.258397449	90.586270990000003
      0.26282439699999999	91.043642790000007
      0.267285249	91.497085290000001
      0.27178147899999999	91.946921900000007
      0.27631461499999999	92.393470609999994
      0.28088624499999998	92.837044969999994
      0.28549801899999999	93.277955219999996
      0.29015165799999998	93.716509279999997
      0.294848956	94.153013889999997
      0.299591787	94.587775629999996
      0.30438211199999998	95.021102040000002
      0.30922198299999998	95.45330276
      0.31411355600000002	95.884690719999995
      0.31905909100000002	96.315583349999997
      0.324060968	96.746303900000001
      0.32912169099999999	97.177182860000002
      0.33424390300000001	97.608559369999995
      0.33943039400000002	98.040782919999998
      0.34468411100000002	98.474215020000003
      0.35000818	98.909231149999997
      0.35540591100000002	99.346222819999994
      0.36088082199999999	99.785599880000007
      0.366436651	100.2277931
      0.37207738099999998	100.67325700000001
      0.37780725700000001	101.1224732
      0.38363081700000001	101.57595360000001
      0.389552911	102.03424510000001
      0.39557873700000001	102.4979336
      0.401713873	102.9676498
      0.40796431599999999	103.44407510000001
      0.41433652900000001	103.9279489
      0.420837509	104.4200783
      0.42747497499999998	104.9213567
      0.43425898400000001	105.43288579999999
      0.44146202099999998	105.9749185
      0.44856258700000001	106.5079061
      0.45587690400000003	107.05707719999999
      0.46342101400000002	107.62377619999999
      0.47120716099999999	108.2090887
      0.47924850299999999	108.8142005
      0.48755929799999997	109.4404164
      0.496155022	110.0891769
      0.50505251799999995	110.7620768
      0.51427015700000001	111.4608879
      0.52382802100000003	112.1875854
      0.53374812500000002	112.944379
      0.54405466000000002	113.73375040000001
      0.55477427700000004	114.558498
      0.56593642099999997	115.4217907
      0.57757370900000005	116.3272333
      0.58972237000000005	117.2789456
      0.60242275199999995	118.28165920000001
      0.61571989900000001	119.3408371
      0.62966422099999997	120.4628209
      0.64431222899999996	121.65501310000001
      0.65972736300000001	122.92610569999999
      0.67598086099999999	124.28636400000001
      0.69315263800000004	125.74798269999999
      0.71133206000000004	127.3255305
      0.73061842099999996	129.03650049999999
      0.75112078999999998	130.90198509999999
      0.772956635	132.94748089999999
      0.79624826999999998	135.20380520000001
      0.82111564500000001	137.70804709999999
      0.84766332799999999	140.50436830000001
      0.87595905799999996	143.6442744
      0.90600166900000001	147.18571779999999
      0.93767904199999996	151.19014369999999
      0.97072398500000001	155.71669249999999
      1.0046871660000001	160.81373919999999
      1.0389539999999999	166.5100477
      1.0728218	172.80985770000001
      1.1056189649999999	179.69557180000001
      1.1368151129999999	187.13741469999999
      1.166076154	195.10516089999999
      1.1932571599999999	203.57694960000001
      1.2183581130000001	212.54344710000001
      1.2414717689999999	222.00841339999999
      1.262740478	231.98749659999999
      1.2823264919999999	242.50660869999999
      1.3003940249999999	253.6005657
      1.317099609	265.31223169999998
      1.332587655	277.69219570000001
      1.346989049	290.79894300000001
      1.360421377	304.69948410000001
      1.3729899480000001	319.47042970000001
      1.3847891750000001	335.19953839999999
      1.395904035	351.98780690000001
      1.406411522	369.95222330000001
      1.416382027	389.22936779999998
      1.4258806550000001	409.98013700000001
      1.4349684949999999	432.3959911
      1.443703884	456.70731569999998
      1.452143746	483.19477810000001
      1.460345062	512.205018
      1.468366627	544.17275689999997
      1.476271267	579.65265699999998
      1.484128812	619.36640990000001
      1.4920203320000001	664.27439319999996
      1.5000444559999999	715.68841520000001
      1.5083273020000001	775.45608200000004
      1.517038858	846.27605440000002
      1.52642144	932.26565330000005
      1.5368418420000001	1040.044543
      1.5488919160000001	1180.938134
      1.5635876129999999	1375.704356
      1.5827254589999999	1664.518061
      1.609038255	2120.3213700000001
      1.6429877180000001	2803.4219309999999
      1.6763000130000001	3588.174364
      1.7038913950000001	4346.5592559999996
      1.7268422349999999	5076.0393119999999
      1.746445904	5791.6494789999997
      1.7635818270000001	6506.5344940000004
      1.778835427	7231.1495919999998
      1.792609184	7974.1327339999998
      1.805191346	8743.1111569999994
      1.8167966790000001	9545.295204
      1.8275911469999999	10387.927960000001
      1.837707435	11278.663500000001
      1.8472551399999999	12225.930109999999
      1.8563277979999999	13239.325269999999
      1.865008022	14330.08987
      1.873371527	15511.71947
      1.8814906259999999	16800.793989999998
      1.88943763	18218.15107
      1.8972886259999999	19790.607090000001
      1.905128269	21553.57647
      1.913056538	23555.22162
      1.921199232	25863.341659999998
      1.92972568	28577.465530000001
      1.938881257	31851.611560000001
      1.949053186	35941.14198
      1.960921235	41311.621829999996
      1.975868577	48939.738250000002
      1.9972472800000001	61282.289870000001
      2.0280781640000001	81252.957920000001
      2.0737002590000002	113566.1776
      2.1433819129999998	165850.06529999999
      2.250195926	248560.18210000001
      2.3541325240000002	331270.29889999999
      2.4580691219999999	413980.41570000001
      2.5620057200000002	496690.53249999997
      2.665942319	579400.64930000005
      2.7698789170000002	662110.76610000001
      2.873815515	744820.88289999997
      2.9777521130000002	827530.99970000004
      3.081688711	910241.1165
  <EndBlock>
  <BeginBlock>
    <BlockName> = "ShaftAir"
    <Mu_x> = 1
    <Mu_y> = 1
    <H_c> = 0
    <H_cAngle> = 0
    <J_re> = 0
    <J_im> = 0
    <Sigma> = 0
    <d_lam> = 0
    <Phi_h> = 0
    <Phi_hx> = 0
    <Phi_hy> = 0
    <LamType> = 0
    <LamFill> = 1
    <NStrands> = 0
    <WireD> = 0
    <BHPoints> = 3
      -100	-7.9577471545947675e-011
      0	0
      100	7.9577471545947675e-011
  <EndBlock>
  <BeginBlock>
    <BlockName> = "Copper"
    <Mu_x> = 1
    <Mu_y> = 1
    <H_c> = 0
    <H_cAngle> = 0
    <J_re> = 0
    <J_im> = 0
    <Sigma> = 58
    <d_lam> = 0
    <Phi_h> = 0
    <Phi_hx> = 0
    <Phi_hy> = 0
    <LamType> = 0
    <LamFill> = 1
    <NStrands> = 0
    <WireD> = 0
    <BHPoints> = 0
  <EndBlock>
  <BeginBlock>
    <BlockName> = "Aluminium"
    <Mu_x> = 1
    <Mu_y> = 1
    <H_c> = 0
    <H_cAngle> = 0
    <J_re> = 0
    <J_im> = 0
    <Sigma> = 29
    <d_lam> = 0
    <Phi_h> = 0
    <Phi_hx> = 0
    <Phi_hy> = 0
    <LamType> = 0
    <LamFill> = 1
    <NStrands> = 0
    <WireD> = 0
    <BHPoints> = 0
  <EndBlock>
  <BeginBlock>
    <BlockName> = "Air"
    <Mu_x> = 1
    <Mu_y> = 1
    <H_c> = 0
    <H_cAngle> = 0
    <J_re> = 0
    <J_im> = 0
    <Sigma> = 0
    <d_lam> = 0
    <Phi_h> = 0
    <Phi_hx> = 0
    <Phi_hy> = 0
    <LamType> = 0
    <LamFill> = 1
    <NStrands> = 0
    <WireD> = 0
    <BHPoints> = 0
  <EndBlock>
  <BeginBlock>
    <BlockName> = "DW235"
    <Mu_x> = 1
    <Mu_y> = 1
    <H_c> = 0
    <H_cAngle> = 0
    <J_re> = 0
    <J_im> = 0
    <Sigma> = 0
    <d_lam> = 0
    <Phi_h> = 0
    <Phi_hx> = 0
    <Phi_hy> = 0
    <LamType> = 0
    <LamFill> = 1
    <NStrands> = 0
    <WireD> = 0
    <BHPoints> = 0
  <EndBlock>
  <BeginBlock>
    <BlockName> = "Air"
    <Mu_x> = 1
    <Mu_y> = 1
    <H_c> = 0
    <H_cAngle> = 0
    <J_re> = 0
    <J_im> = 0
    <Sigma> = 0
    <d_lam> = 0
    <Phi_h> = 0
    <Phi_hx> = 0
    <Phi_hy> = 0
    <LamType> = 0
    <LamFill> = 1
    <NStrands> = 0
    <WireD> = 0
    <BHPoints> = 0
  <EndBlock>
[CircuitProps]  = 6
  <BeginCircuit>
    <CircuitName> = "fase1"
    <TotalAmps_re> = 0
    <TotalAmps_im> = 0
    <CircuitType> = 1
  <EndCircuit>
  <BeginCircuit>
    <CircuitName> = "fase2"
    <TotalAmps_re> = 0
    <TotalAmps_im> = 0
    <CircuitType> = 1
  <EndCircuit>
  <BeginCircuit>
    <CircuitName> = "fase3"
    <TotalAmps_re> = 0
    <TotalAmps_im> = 0
    <CircuitType> = 1
  <EndCircuit>
  <BeginCircuit>
    <CircuitName> = "fase1n"
    <TotalAmps_re> = 0
    <TotalAmps_im> = 0
    <CircuitType> = 1
  <EndCircuit>
  <BeginCircuit>
    <CircuitName> = "fase2n"
    <TotalAmps_re> = 0
    <TotalAmps_im> = 0
    <CircuitType> = 1
  <EndCircuit>
  <BeginCircuit>
    <CircuitName> = "fase3n"
    <TotalAmps_re> = 0
    <TotalAmps_im> = 0
    <CircuitType> = 1
  <EndCircuit>
<<<<<<< HEAD
[NumPoints] = 93
770.07289695479301	24.200515732475456	0	2
766.34441804888911	24.083343562441495	0	2
769.88094760231456	30.30844316533414	0	2
769.87907841069398	30.367921807114257	0	2
769.77664416848029	30.463073362354841	0	2
766.15256791437002	30.233622367411648	0	2
763.11652392088456	23.981902902815055	0	2
759.30442650397458	23.862102915208069	0	2
762.81110453276904	33.700505414935193	0	2
766.02318070800493	33.902592118693534	0	2
769.54773212472082	37.845660663825811	0	2
769.44365132572341	37.939989771027371	0	2
758.88360046009655	37.274906434200396	0	2
756.16015088697623	23.763290073154657	0	2
752.26128713910134	23.640763343747167	0	2
755.63893491523493	40.348651217310362	0	2
765.59078321901325	40.974768441901375	0	2
769.1620815485619	45.007758856290977	0	2
769.05701810895823	45.100794754621347	0	2
751.62135181256315	44.003835611237982	0	2
770.26484630727145	18.092588299616772	0	2
770.26671549889204	18.033109657836654	0	2
770.16760049805146	17.934505352479725	0	2
766.5362681834082	17.933064757471342	0	2
763.42194330900008	14.263300390694919	0	2
766.64037031475209	14.263300390694923	0	2
770.40555415684275	10.549321005191494	0	2
770.30622649356008	10.449999262892637	0	2
759.72525254785262	10.449299396215743	0	2
756.68136685871752	7.1779289289989485	0	2
766.65289168897016	7.1779289289989521	0	2
770.47037644042712	3.3771403774496491	0	2
770.37136209191328	3.2776910762563567	0	2
752.90122246563953	3.2776910762563531	0	2
773.49999999999989	0	0	20
638.37	0	0	2
771.97367443926794	48.568466855923887	0	20
637.11032262675576	40.083583951927778	0	2
0	0	0	2
850	0	0	1
777.97368421052624	0	0	20
848.32271916403079	53.371941599916369	0	1
776.43853085592082	48.849371811712921	0	20
785.46217459729189	10.262481038120702	0	1
785.48350277337806	8.2258646972959326	0	1
785.49165953075453	10.377317272053201	0	1
836.67823106200251	11.449523097906054	0	1
838.33867700586984	9.8430336460340637	0	1
838.35153013312197	8.7795176236001815	0	1
838.3609524238675	7.7159656722170578	0	1
836.73451441987402	6.0750547938792625	0	1
785.53671436502259	6.0750547938792607	0	1
785.50483094946424	6.1892483564711629	0	1
811.94075825844652	6.0750547938792598	0	1
811.88991258102169	10.930281845887869	0	1
777.90703331764132	10.183360891464622	0	1
777.94968966981367	6.1101282098150822	0	1
785.07498857557368	26.709708969351077	0	1
785.13896374858916	24.673985955764195	0	1
785.10206209387422	26.825137503656595	0	1
836.25495297951306	28.969078850450355	0	1
837.948678536785	27.397715484412728	0	1
837.98380144422845	26.334701884205064	0	1
838.01549502004355	25.271580512909296	0	1
836.42377836538685	23.596967965849544	0	1
785.23720683413899	22.524762139996689	0	1
785.20293892160475	22.63826294217731	0	1
811.63545988440615	23.077726713831357	0	1
811.48294515472639	27.9308241027882	0	1
777.52316123058802	26.472383234094107	0	1
777.6511115766192	22.400937206920339	0	1
784.34344271689508	43.145221139463359	0	1
784.45003682521485	41.111284388509389	0	1
784.36809294469379	43.261191343371806	0	1
835.46486583616206	46.475927807573839	0	1
837.19112808283126	44.940379779276967	0	1
837.24850536439794	43.878334874193499	0	1
837.30245632343269	42.816110403155022	0	1
835.74615919764415	41.10853072778292	0	1
784.59326831200542	38.96458938098916	0	1
784.55663093353439	39.077347637555427	0	1
810.9741513728577	40.070275980120769	0	1
810.72003448892417	44.919114977114674	0	1
776.79824178763829	42.749793914516673	0	1
777.0114300042776	38.68192041260874	0	1
849.81358095361873	17.801056900853414	0	1
777.80306172544351	16.292651552938992	0	1
849.25440558402966	35.594305669819676	0	1
777.29126911085655	32.578156610429687	0	1
776.48245614035079	0	0	20
774.95024538370319	48.755736826449912	0	20
774.99122807017534	0	0	20
773.46195991148556	48.662101841186903	0	20
[NumSegments] = 76
0	1	0.75555555555555554	0	0	2
2	0	0.75555555555555554	0	0	2
5	4	0.75555555555555554	0	0	2
1	5	0.75555555555555554	0	0	2
6	7	0.75555555555555554	0	0	2
8	6	0.75555555555555554	0	0	2
9	8	0.75555555555555554	0	0	2
12	11	0.75555555555555554	0	0	2
7	12	0.75555555555555554	0	0	2
13	14	0.75555555555555554	0	0	2
15	13	0.75555555555555554	0	0	2
16	15	0.75555555555555554	0	0	2
19	18	0.75555555555555554	0	0	2
14	19	0.75555555555555554	0	0	2
20	0	0.75555555555555554	0	0	2
23	22	0.75555555555555554	0	0	2
1	23	0.75555555555555554	0	0	2
24	6	0.75555555555555554	0	0	2
25	24	0.75555555555555554	0	0	2
28	27	0.75555555555555554	0	0	2
7	28	0.75555555555555554	0	0	2
29	13	0.75555555555555554	0	0	2
30	29	0.75555555555555554	0	0	2
33	32	0.75555555555555554	0	0	2
14	33	0.75555555555555554	0	0	2
34	35	-1	4	0	2
37	36	-1	4	0	2
35	38	-1	2	0	2
38	37	-1	2	0	2
39	40	-1	10	0	1
42	41	-1	10	0	1
43	44	0.75555555555555554	0	0	1
45	43	0.75555555555555554	0	0	1
46	54	0.75555555555555554	0	0	1
48	47	0.75555555555555554	0	0	1
49	48	0.75555555555555554	0	0	1
51	53	0.75555555555555554	0	0	1
52	51	0.75555555555555554	0	0	1
44	52	0.75555555555555554	0	0	1
53	50	0.75555555555555554	0	0	1
54	45	0.75555555555555554	0	0	1
53	54	0.75555555555555554	0	0	1
43	55	0.75555555555555554	0	0	1
56	52	0.75555555555555554	0	0	1
57	58	0.75555555555555554	0	0	1
59	57	0.75555555555555554	0	0	1
60	68	0.75555555555555554	0	0	1
62	61	0.75555555555555554	0	0	1
63	62	0.75555555555555554	0	0	1
65	67	0.75555555555555554	0	0	1
66	65	0.75555555555555554	0	0	1
58	66	0.75555555555555554	0	0	1
67	64	0.75555555555555554	0	0	1
68	59	0.75555555555555554	0	0	1
67	68	0.75555555555555554	0	0	1
57	69	0.75555555555555554	0	0	1
70	66	0.75555555555555554	0	0	1
71	72	0.75555555555555554	0	0	1
73	71	0.75555555555555554	0	0	1
74	82	0.75555555555555554	0	0	1
76	75	0.75555555555555554	0	0	1
77	76	0.75555555555555554	0	0	1
79	81	0.75555555555555554	0	0	1
80	79	0.75555555555555554	0	0	1
72	80	0.75555555555555554	0	0	1
81	78	0.75555555555555554	0	0	1
82	73	0.75555555555555554	0	0	1
81	82	0.75555555555555554	0	0	1
71	83	0.75555555555555554	0	0	1
84	80	0.75555555555555554	0	0	1
85	86	0.75555555555555554	0	0	1
87	88	0.75555555555555554	0	0	1
89	40	0.075555555555555556	7	0	20
90	42	0.075555555555555556	7	0	20
91	34	0.075555555555555556	5	0	20
92	36	0.075555555555555556	5	0	20
[NumArcSegments] = 34
2	3	0.91772813777691775	2.9129995880380237	0	0	2	1
3	4	91.34113595401071	10	0	0	2	1
9	10	89.215486189626404	2.8741017950285741	0	0	2	1
10	11	90.784513808668791	10	0	0	2	1
16	17	89.748861660100971	2.8349640854849998	0	0	2	1
17	18	90.251138339919706	10	0	0	2	1
21	20	0.91772813777692219	2.9129995880371022	0	0	2	1
22	21	91.341135905826491	10	0	0	2	1
26	25	89.215486189623476	2.8741017950590222	0	0	2	1
27	26	90.784513811914195	10	0	0	2	1
31	30	89.748861660102108	2.8349640854598515	0	0	2	1
32	31	90.251138339896571	10	0	0	2	1
34	36	3.6000000000000001	0.013991643348738052	0	0	2	1
35	37	3.5999999999999996	0.016953390870888173	0	0	2	1
39	85	1.1999999999999995	0.75555555555555554	1	0	1	1
40	56	0.44999999999999996	0.013911185365134039	0	0	1	1
47	46	90.507585338351831	6.6538727062231819	0	0	1	1
50	49	90.5075853383577	6.6538727062242016	0	0	1	1
55	86	0.45000000000000007	0.013911185365134039	0	0	1	1
56	55	0.29999999999999988	0.013911185365134039	0	0	1	1
61	60	90.507585338351817	6.6538727062234733	0	0	1	1
64	63	90.507585338355526	6.65387270622419	0	0	1	1
69	88	0.44999999999999946	0.013911185365134039	0	0	1	1
70	69	0.30000000000000016	0.013911185365134039	0	0	1	1
75	74	90.507585338353408	6.6538727062229581	0	0	1	1
78	77	90.507585338359547	6.6538727062242087	0	0	1	1
83	42	0.44999999999999873	0.013911185365134039	0	0	1	1
84	83	0.29999999999999932	0.013911185365134039	0	0	1	1
85	87	1.1999999999999988	0.75555555555555554	1	0	1	1
86	70	0.44999999999999984	0.013911185365134039	0	0	1	1
87	41	1.2000000000000006	0.75555555555555554	1	0	1	1
88	84	0.45000000000000034	0.013911185365134039	0	0	1	1
89	90	3.6000000000000001	0.075555555555555556	11	0	20	1
91	92	3.6000000000000001	0.075555555555555556	11	0	20	1
[NumHoles] = 0
[NumBlockLabels] = 22
769.84466452937147	30.378824343150349	7	0.75555555555555554	0	0	2	1	0
768.33775894360622	36.562267454764111	7	0.75555555555555554	0	0	2	1	0
767.93662762551105	43.694440684271235	7	0.75555555555555554	0	0	2	1	0
770.2340066030024	18.019137306874089	7	0.75555555555555554	0	0	2	1	0
769.11784206092341	11.753754714459971	7	0.75555555555555554	0	0	2	1	0
769.16487674043685	4.6109201275683205	7	0.75555555555555554	0	0	2	1	0
695.15814503988668	21.846224808225962	1	0.75555555555555554	0	0	22	1	0
319.02750147033606	10.025843136352378	7	0.75555555555555554	0	0	2	1	0
798.69941909655608	8.3642665085897487	3	0.75555555555555554	1	0	1	1	0
825.13125174291213	8.6410701311773828	3	0.75555555555555554	1	0	1	1	0
781.7072650965921	8.1863185832344705	7	0.75555555555555554	0	0	10	1	0
844.15246204690368	8.8402670612045533	1	0.75555555555555554	0	0	12	1	0
798.34908313407777	25.089130682036988	3	0.75555555555555554	3	0	1	-1	0
824.76932190505477	25.919420134582577	3	0.75555555555555554	3	0	1	-1	0
781.36438245445413	24.555364959812447	7	0.75555555555555554	0	0	10	1	0
843.78218887755008	26.516923550307059	1	0.75555555555555554	0	0	12	1	0
797.64856487805287	41.802989933563559	3	0.75555555555555554	2	0	1	1	0
824.04562098372901	43.186401023671891	3	0.75555555555555554	2	0	1	1	0
780.67876756983719	40.913640541756642	7	0.75555555555555554	0	0	10	1	0
843.04180495289279	44.181948840347872	1	0.75555555555555554	0	0	12	1	0
776.84455504074799	24.413323661039286	7	0.075555555555555556	0	0	20	1	0
773.86357056246413	24.319642449753641	7	0.075555555555555556	0	0	20	1	0
=======
[NumPoints] = 131
761.73475320768375	23.938479008771097	0	2
759.99307043416263	23.8837444225673	0	2
761.5438686537592	29.975657010892341	0	2
766.16098504961064	30.26729087092772	0	2
766.87154740753169	31.052854567301218	0	2
765.83184732189727	31.992519327169543	0	2
759.75145927369636	31.608803200159088	0	2
757.06270927086041	23.79165411304626	0	2
753.50677360825489	23.679904332880177	0	2
756.72946152230008	34.379123310365003	0	2
763.65293318031672	34.815225379524691	0	2
766.55558162917373	38.062977723231825	0	2
766.03428831483723	38.52871863335929	0	2
753.06577182120361	37.712808733388862	0	2
750.66690245675932	23.59065778654444	0	2
745.36928402063268	23.424173420174565	0	2
750.1392292945784	40.381490062100838	0	2
762.74113641436566	41.174334855303655	0	2
766.17642215933222	45.054856864991187	0	2
764.4405080873405	46.592373836429473	0	2
744.68068747084305	45.348768032986868	0	2
761.9256377616083	17.901301006649852	0	2
766.55195517451659	17.902448256657053	0	2
767.30812645501408	17.16068402180484	0	2
766.32716512091599	16.159853871374558	0	2
760.23468159462902	16.158685644975513	0	2
757.39595701942073	13.204184915727513	0	2
764.33314986312723	13.204698054718419	0	2
767.43295343786963	10.144554087235566	0	2
766.94193289052362	9.6469999323714948	0	2
753.94777539530617	9.646999932371493	0	2
751.19457561894023	6.7998255109880397	0	2
763.82139889012979	6.7998255109880397	0	2
767.49356587642831	3.1426642017237896	0	2
765.85679634912265	1.5000012365105952	0	2
746.0578805704223	1.499578807362262	0	2
768	0	0	20
700	0	0	2
766.4845274329125	48.223118998512675	0	20
698.61870989979013	43.953363670519359	0	2
0	0	0	2
800	0	0	1
769	0	0	20
798.4213827426172	50.232415623450699	0	1
767.48255416134077	48.285909518041983	0	20
774.46782438466153	5.2630995409015195	0	1
774.47414912464808	4.0551742205109678	0	1
774.80247342078201	5.9906787281092484	0	1
788.74281678773377	6.1366669989838254	0	1
790.7731601285891	4.1405164224653008	0	1
788.76383137064818	2.1232139790021258	0	1
774.82272360391221	2.1232139790021254	0	1
774.48047386463463	2.847248900120416	0	1
782.63270728624036	2.1232139790021258	0	1
782.6120288767496	6.072463191181992	0	1
768.98218529576138	5.2343765393120174	0	1
768.99483477573449	2.8185258985309138	0	1
774.37024578028547	13.372870823749054	0	1
774.38921930666618	12.165077965981961	0	1
774.69725741521108	14.103914489789272	0	1
788.63530766663484	14.395875022279386	0	1
790.68644294037745	12.421095213110799	0	1
788.69834911089242	10.382862122648831	0	1
774.75800574394077	10.236873851774256	0	1
774.40819283304688	10.957285108214872	0	1
782.56756119990825	10.318658314846997	0	1
782.50552823905662	14.267474447346755	0	1
768.88520825352896	13.286704968781351	0	1
768.92315530629037	10.871119253247169	0	1
774.18774875210011	21.481175620612206	0	1
774.21936898421393	20.273647673566021	0	1
774.50708712531991	22.215603598308817	0	1
788.44131579693828	22.653504375651991	0	1
790.51301807347113	20.700311890693161	0	1
788.54637718933395	18.64137166845957	0	1
774.60832693791019	18.349411135969454	0	1
774.25098921632787	19.066119726519833	0	1
782.41659776175561	18.512971093526939	0	1
782.31321705215623	22.460921114158541	0	1
768.7039142836627	21.3375763613233	0	1
768.76715474789057	18.922520467230932	0	1
773.92035331296097	29.587124764497716	0	1
773.96461678329342	28.379994147219428	0	1
774.23198340542388	30.324856515546713	0	1
788.16086245203837	30.908649516988007	0	1
790.25290454586093	28.977258545805395	0	1
788.30793227140668	26.897836977797692	0	1
774.37370359978843	26.459936200454525	0	1
774.00888025362576	27.172863529941143	0	1
782.17983352662475	26.705253716304249	0	1
782.03511640513761	30.65190468785859	0	1
768.43832326708957	29.386107848164606	0	1
768.52685020775425	26.971846613608037	0	1
773.56808878579147	37.689829346736204	0	1
773.62499064035399	36.483228434701125	0	1
773.8719764237461	38.430783970537604	0	1
787.79397838680507	39.160405176595667	0	1
789.9061308819264	37.251027517974059	0	1
787.98304050528304	35.15135263620013	0	1
774.05416145866866	34.567559634758837	0	1
773.68189249491638	35.276627522666054	0	1
781.85729445838228	34.894607807070713	0	1
781.67125679487026	38.839526934794037	0	1
768.08846432885741	37.431416817129019	0	1
768.20226803798221	35.018214993058862	0	1
773.1309938003667	45.788400814461049	0	1
773.20052779922958	44.582461925056343	0	1
773.42710565910875	46.532497056990557	0	1
787.34070383421033	47.407866456478061	0	1
789.47273510930768	45.520711495194448	0	1
787.57173751900598	43.401013552666264	0	1
773.64973555594713	42.671392346608208	0	1
773.27006179809246	43.376523035651637	0	1
781.44901592707129	43.080135310864641	0	1
781.22167812266105	47.022889989919406	0	1
767.65437583494111	45.472621009425708	0	1
767.79344383266698	43.060743230616303	0	1
799.95613549240966	8.377427292996634	0	1
768.95783524207889	8.052801985393014	0	1
799.82454677987641	16.753935906685566	0	1
768.83134559215614	16.1047208903015	0	1
799.60524829258532	25.128607262502634	0	1
768.62054492124764	24.154873731080656	0	1
799.29826407908672	33.500522983359694	0	1
768.32545634602207	32.202377717754501	0	1
798.90362780365911	41.868764994355054	0	1
767.94611222626725	40.246350350823796	0	1
768.66666666666663	0	0	20
767.14987858519805	48.264979344865544	0	20
768.33333333333337	0	0	20
766.81720300905533	48.244049171689113	0	20
[NumSegments] = 108
0	1	0.91428571428571415	0	0	2
2	0	0.91428571428571415	0	0	2
3	2	0.91428571428571415	0	0	2
6	5	0.91428571428571415	0	0	2
1	6	0.91428571428571415	0	0	2
7	8	0.91428571428571415	0	0	2
9	7	0.91428571428571415	0	0	2
10	9	0.91428571428571415	0	0	2
13	12	0.91428571428571415	0	0	2
8	13	0.91428571428571415	0	0	2
14	15	0.91428571428571415	0	0	2
16	14	0.91428571428571415	0	0	2
17	16	0.91428571428571415	0	0	2
20	19	0.91428571428571415	0	0	2
15	20	0.91428571428571415	0	0	2
21	0	0.91428571428571415	0	0	2
22	21	0.91428571428571415	0	0	2
25	24	0.91428571428571415	0	0	2
1	25	0.91428571428571415	0	0	2