[Format]      =  4.0
[Frequency]   =  0
[Precision]   =  1e-008
[MinAngle]    =  15
[DoSmartMesh] =  1
[Depth]       =  300
[LengthUnits] =  millimeters
[ProblemType] =  planar
[Coordinates] =  cartesian
[ACSolver]    =  0
[PrevType]    =  0
[PrevSoln]    =  ""
[Comment]     =  "Add comments here."
[PointProps]   = 0
[BdryProps]   = 11
  <BeginBdry>
    <BdryName> = "A=0"
    <BdryType> = 0
    <A_0> = 0
    <A_1> = 0
    <A_2> = 0
    <Phi> = 0
    <c0> = 0
    <c0i> = 0
    <c1> = 0
    <c1i> = 0
    <Mu_ssd> = 0
    <Sigma_ssd> = 0
    <innerangle> = 0
    <outerangle> = 0
  <EndBdry>
  <BeginBdry>
    <BdryName> = "APr1"
    <BdryType> = 5
    <A_0> = 0
    <A_1> = 0
    <A_2> = 0
    <Phi> = 0
    <c0> = 0
    <c0i> = 0
    <c1> = 0
    <c1i> = 0
    <Mu_ssd> = 0
    <Sigma_ssd> = 0
    <innerangle> = 0
    <outerangle> = 0
  <EndBdry>
  <BeginBdry>
    <BdryName> = "APr2"
    <BdryType> = 5
    <A_0> = 0
    <A_1> = 0
    <A_2> = 0
    <Phi> = 0
    <c0> = 0
    <c0i> = 0
    <c1> = 0
    <c1i> = 0
    <Mu_ssd> = 0
    <Sigma_ssd> = 0
    <innerangle> = 0
    <outerangle> = 0
  <EndBdry>
  <BeginBdry>
    <BdryName> = "APr3"
    <BdryType> = 5
    <A_0> = 0
    <A_1> = 0
    <A_2> = 0
    <Phi> = 0
    <c0> = 0
    <c0i> = 0
    <c1> = 0
    <c1i> = 0
    <Mu_ssd> = 0
    <Sigma_ssd> = 0
    <innerangle> = 0
    <outerangle> = 0
  <EndBdry>
  <BeginBdry>
    <BdryName> = "APg1"
    <BdryType> = 5
    <A_0> = 0
    <A_1> = 0
    <A_2> = 0
    <Phi> = 0
    <c0> = 0
    <c0i> = 0
    <c1> = 0
    <c1i> = 0
    <Mu_ssd> = 0
    <Sigma_ssd> = 0
    <innerangle> = 0
    <outerangle> = 0
  <EndBdry>
  <BeginBdry>
    <BdryName> = "APg2"
    <BdryType> = 5
    <A_0> = 0
    <A_1> = 0
    <A_2> = 0
    <Phi> = 0
    <c0> = 0
    <c0i> = 0
    <c1> = 0
    <c1i> = 0
    <Mu_ssd> = 0
    <Sigma_ssd> = 0
    <innerangle> = 0
    <outerangle> = 0
  <EndBdry>
  <BeginBdry>
    <BdryName> = "APg3"
    <BdryType> = 5
    <A_0> = 0
    <A_1> = 0
    <A_2> = 0
    <Phi> = 0
    <c0> = 0
    <c0i> = 0
    <c1> = 0
    <c1i> = 0
    <Mu_ssd> = 0
    <Sigma_ssd> = 0
    <innerangle> = 0
    <outerangle> = 0
  <EndBdry>
  <BeginBdry>
    <BdryName> = "APs1"
    <BdryType> = 5
    <A_0> = 0
    <A_1> = 0
    <A_2> = 0
    <Phi> = 0
    <c0> = 0
    <c0i> = 0
    <c1> = 0
    <c1i> = 0
    <Mu_ssd> = 0
    <Sigma_ssd> = 0
    <innerangle> = 0
    <outerangle> = 0
  <EndBdry>
  <BeginBdry>
    <BdryName> = "APs2"
    <BdryType> = 5
    <A_0> = 0
    <A_1> = 0
    <A_2> = 0
    <Phi> = 0
    <c0> = 0
    <c0i> = 0
    <c1> = 0
    <c1i> = 0
    <Mu_ssd> = 0
    <Sigma_ssd> = 0
    <innerangle> = 0
    <outerangle> = 0
  <EndBdry>
  <BeginBdry>
    <BdryName> = "APs3"
    <BdryType> = 5
    <A_0> = 0
    <A_1> = 0
    <A_2> = 0
    <Phi> = 0
    <c0> = 0
    <c0i> = 0
    <c1> = 0
    <c1i> = 0
    <Mu_ssd> = 0
    <Sigma_ssd> = 0
    <innerangle> = 0
    <outerangle> = 0
  <EndBdry>
  <BeginBdry>
    <BdryName> = "AGap"
    <BdryType> = 7
    <A_0> = 0
    <A_1> = 0
    <A_2> = 0
    <Phi> = 0
    <c0> = 0
    <c0i> = 0
    <c1> = 0
    <c1i> = 0
    <Mu_ssd> = 0
    <Sigma_ssd> = 0
    <innerangle> = 1
    <outerangle> = 0
  <EndBdry>
[BlockProps]  = 7
  <BeginBlock>
    <BlockName> = "M600-50A"
    <Mu_x> = 1
    <Mu_y> = 1
    <H_c> = 0
    <H_cAngle> = 0
    <J_re> = 0
    <J_im> = 0
    <Sigma> = 0
    <d_lam> = 0
    <Phi_h> = 0
    <Phi_hx> = 0
    <Phi_hy> = 0
    <LamType> = 0
    <LamFill> = 1
    <NStrands> = 0
    <WireD> = 0
    <BHPoints> = 208
      0	0
      0.0061294119999999999	8.2635015680000006
      0.012398954	15.54584049
      0.018188152999999999	21.42337126
      0.023698273999999998	26.396066560000001
      0.028962854999999999	30.670770340000001
      0.034031080999999998	34.409892589999998
      0.038937833999999998	37.72521158
      0.043710287	40.697869570000002
      0.048369641999999997	43.388214720000001
      0.052932743999999997	45.842257519999997
      0.057413198999999998	48.095830579999998
      0.061822165999999998	50.17736026
      0.066168929000000001	52.109762629999999
      0.070461307000000001	53.911772880000001
      0.074705967999999998	55.598898519999999
      0.078908651999999996	57.184116670000002
      0.083074354000000003	58.67839326
      0.087207454000000004	60.091076020000003
      0.091311829999999997	61.430196219999999
      0.095390935999999996	62.702703470000003
      0.099447875000000005	63.914650479999999
      0.10348545000000001	65.071340269999993
      0.107506212	66.177444339999994
      0.111512495	67.237098649999993
      0.115506446	68.253982050000005
      0.119490053	69.231381029999994
      0.123465163	70.172243330000001
      0.127433505	71.079222909999999
      0.131396704	71.954717669999994
      0.13535628999999999	72.800901379999999
      0.139313718	73.619750830000001
      0.14327037200000001	74.413069070000006
      0.147227575	75.182505329999998
      0.151186599	75.929572239999999
      0.15514867099999999	76.655660710000006
      0.15911497799999999	77.362052919999996
      0.16308667299999999	78.049933670000001
      0.167064883	78.720400249999997
      0.171050709	79.374471249999999
      0.17504523399999999	80.013094219999999
      0.17904952399999999	80.637152520000001
      0.183064634	81.247471390000001
      0.18709161099999999	81.844823349999999
      0.19113149500000001	82.429933079999998
      0.19518532499999999	83.003481679999993
      0.19925414	83.566110629999997
      0.203338983	84.118425299999998
      0.20744090200000001	84.6609981
      0.21156095499999999	85.194371430000004
      0.21570021	85.719060249999998
      0.21985974999999999	86.23555451
      0.224040674	86.744321339999999
      0.228244101	87.245807119999995
      0.232471172	87.740439260000002
      0.23672305199999999	88.228628009999994
      0.241000933	88.710768049999999
      0.245306038	89.187239969999993
      0.249639624	89.658411700000002
      0.25400298399999999	90.124639849999994
      0.258397449	90.586270990000003
      0.26282439699999999	91.043642790000007
      0.267285249	91.497085290000001
      0.27178147899999999	91.946921900000007
      0.27631461499999999	92.393470609999994
      0.28088624499999998	92.837044969999994
      0.28549801899999999	93.277955219999996
      0.29015165799999998	93.716509279999997
      0.294848956	94.153013889999997
      0.299591787	94.587775629999996
      0.30438211199999998	95.021102040000002
      0.30922198299999998	95.45330276
      0.31411355600000002	95.884690719999995
      0.31905909100000002	96.315583349999997
      0.324060968	96.746303900000001
      0.32912169099999999	97.177182860000002
      0.33424390300000001	97.608559369999995
      0.33943039400000002	98.040782919999998
      0.34468411100000002	98.474215020000003
      0.35000818	98.909231149999997
      0.35540591100000002	99.346222819999994
      0.36088082199999999	99.785599880000007
      0.366436651	100.2277931
      0.37207738099999998	100.67325700000001
      0.37780725700000001	101.1224732
      0.38363081700000001	101.57595360000001
      0.389552911	102.03424510000001
      0.39557873700000001	102.4979336
      0.401713873	102.9676498
      0.40796431599999999	103.44407510000001
      0.41433652900000001	103.9279489
      0.420837509	104.4200783
      0.42747497499999998	104.9213567
      0.43425898400000001	105.43288579999999
      0.44146202099999998	105.9749185
      0.44856258700000001	106.5079061
      0.45587690400000003	107.05707719999999
      0.46342101400000002	107.62377619999999
      0.47120716099999999	108.2090887
      0.47924850299999999	108.8142005
      0.48755929799999997	109.4404164
      0.496155022	110.0891769
      0.50505251799999995	110.7620768
      0.51427015700000001	111.4608879
      0.52382802100000003	112.1875854
      0.53374812500000002	112.944379
      0.54405466000000002	113.73375040000001
      0.55477427700000004	114.558498
      0.56593642099999997	115.4217907
      0.57757370900000005	116.3272333
      0.58972237000000005	117.2789456
      0.60242275199999995	118.28165920000001
      0.61571989900000001	119.3408371
      0.62966422099999997	120.4628209
      0.64431222899999996	121.65501310000001
      0.65972736300000001	122.92610569999999
      0.67598086099999999	124.28636400000001
      0.69315263800000004	125.74798269999999
      0.71133206000000004	127.3255305
      0.73061842099999996	129.03650049999999
      0.75112078999999998	130.90198509999999
      0.772956635	132.94748089999999
      0.79624826999999998	135.20380520000001
      0.82111564500000001	137.70804709999999
      0.84766332799999999	140.50436830000001
      0.87595905799999996	143.6442744
      0.90600166900000001	147.18571779999999
      0.93767904199999996	151.19014369999999
      0.97072398500000001	155.71669249999999
      1.0046871660000001	160.81373919999999
      1.0389539999999999	166.5100477
      1.0728218	172.80985770000001
      1.1056189649999999	179.69557180000001
      1.1368151129999999	187.13741469999999
      1.166076154	195.10516089999999
      1.1932571599999999	203.57694960000001
      1.2183581130000001	212.54344710000001
      1.2414717689999999	222.00841339999999
      1.262740478	231.98749659999999
      1.2823264919999999	242.50660869999999
      1.3003940249999999	253.6005657
      1.317099609	265.31223169999998
      1.332587655	277.69219570000001
      1.346989049	290.79894300000001
      1.360421377	304.69948410000001
      1.3729899480000001	319.47042970000001
      1.3847891750000001	335.19953839999999
      1.395904035	351.98780690000001
      1.406411522	369.95222330000001
      1.416382027	389.22936779999998
      1.4258806550000001	409.98013700000001
      1.4349684949999999	432.3959911
      1.443703884	456.70731569999998
      1.452143746	483.19477810000001
      1.460345062	512.205018
      1.468366627	544.17275689999997
      1.476271267	579.65265699999998
      1.484128812	619.36640990000001
      1.4920203320000001	664.27439319999996
      1.5000444559999999	715.68841520000001
      1.5083273020000001	775.45608200000004
      1.517038858	846.27605440000002
      1.52642144	932.26565330000005
      1.5368418420000001	1040.044543
      1.5488919160000001	1180.938134
      1.5635876129999999	1375.704356
      1.5827254589999999	1664.518061
      1.609038255	2120.3213700000001
      1.6429877180000001	2803.4219309999999
      1.6763000130000001	3588.174364
      1.7038913950000001	4346.5592559999996
      1.7268422349999999	5076.0393119999999
      1.746445904	5791.6494789999997
      1.7635818270000001	6506.5344940000004
      1.778835427	7231.1495919999998
      1.792609184	7974.1327339999998
      1.805191346	8743.1111569999994
      1.8167966790000001	9545.295204
      1.8275911469999999	10387.927960000001
      1.837707435	11278.663500000001
      1.8472551399999999	12225.930109999999
      1.8563277979999999	13239.325269999999
      1.865008022	14330.08987
      1.873371527	15511.71947
      1.8814906259999999	16800.793989999998
      1.88943763	18218.15107
      1.8972886259999999	19790.607090000001
      1.905128269	21553.57647
      1.913056538	23555.22162
      1.921199232	25863.341659999998
      1.92972568	28577.465530000001
      1.938881257	31851.611560000001
      1.949053186	35941.14198
      1.960921235	41311.621829999996
      1.975868577	48939.738250000002
      1.9972472800000001	61282.289870000001
      2.0280781640000001	81252.957920000001
      2.0737002590000002	113566.1776
      2.1433819129999998	165850.06529999999
      2.250195926	248560.18210000001
      2.3541325240000002	331270.29889999999
      2.4580691219999999	413980.41570000001
      2.5620057200000002	496690.53249999997
      2.665942319	579400.64930000005
      2.7698789170000002	662110.76610000001
      2.873815515	744820.88289999997
      2.9777521130000002	827530.99970000004
      3.081688711	910241.1165
  <EndBlock>
  <BeginBlock>
    <BlockName> = "ShaftAir"
    <Mu_x> = 1
    <Mu_y> = 1
    <H_c> = 0
    <H_cAngle> = 0
    <J_re> = 0
    <J_im> = 0
    <Sigma> = 0
    <d_lam> = 0
    <Phi_h> = 0
    <Phi_hx> = 0
    <Phi_hy> = 0
    <LamType> = 0
    <LamFill> = 1
    <NStrands> = 0
    <WireD> = 0
    <BHPoints> = 3
      -100	-7.9577471545947675e-011
      0	0
      100	7.9577471545947675e-011
  <EndBlock>
  <BeginBlock>
    <BlockName> = "Copper"
    <Mu_x> = 1
    <Mu_y> = 1
    <H_c> = 0
    <H_cAngle> = 0
    <J_re> = 0
    <J_im> = 0
    <Sigma> = 58
    <d_lam> = 0
    <Phi_h> = 0
    <Phi_hx> = 0
    <Phi_hy> = 0
    <LamType> = 0
    <LamFill> = 1
    <NStrands> = 0
    <WireD> = 0
    <BHPoints> = 0
  <EndBlock>
  <BeginBlock>
    <BlockName> = "Aluminium"
    <Mu_x> = 1
    <Mu_y> = 1
    <H_c> = 0
    <H_cAngle> = 0
    <J_re> = 0
    <J_im> = 0
    <Sigma> = 29
    <d_lam> = 0
    <Phi_h> = 0
    <Phi_hx> = 0
    <Phi_hy> = 0
    <LamType> = 0
    <LamFill> = 1
    <NStrands> = 0
    <WireD> = 0
    <BHPoints> = 0
  <EndBlock>
  <BeginBlock>
    <BlockName> = "Air"
    <Mu_x> = 1
    <Mu_y> = 1
    <H_c> = 0
    <H_cAngle> = 0
    <J_re> = 0
    <J_im> = 0
    <Sigma> = 0
    <d_lam> = 0
    <Phi_h> = 0
    <Phi_hx> = 0
    <Phi_hy> = 0
    <LamType> = 0
    <LamFill> = 1
    <NStrands> = 0
    <WireD> = 0
    <BHPoints> = 0
  <EndBlock>
  <BeginBlock>
    <BlockName> = "DW235"
    <Mu_x> = 1
    <Mu_y> = 1
    <H_c> = 0
    <H_cAngle> = 0
    <J_re> = 0
    <J_im> = 0
    <Sigma> = 0
    <d_lam> = 0
    <Phi_h> = 0
    <Phi_hx> = 0
    <Phi_hy> = 0
    <LamType> = 0
    <LamFill> = 1
    <NStrands> = 0
    <WireD> = 0
    <BHPoints> = 0
  <EndBlock>
  <BeginBlock>
    <BlockName> = "Air"
    <Mu_x> = 1
    <Mu_y> = 1
    <H_c> = 0
    <H_cAngle> = 0
    <J_re> = 0
    <J_im> = 0
    <Sigma> = 0
    <d_lam> = 0
    <Phi_h> = 0
    <Phi_hx> = 0
    <Phi_hy> = 0
    <LamType> = 0
    <LamFill> = 1
    <NStrands> = 0
    <WireD> = 0
    <BHPoints> = 0
  <EndBlock>
[CircuitProps]  = 6
  <BeginCircuit>
    <CircuitName> = "fase1"
    <TotalAmps_re> = 2179.1304332981454
    <TotalAmps_im> = 0
    <CircuitType> = 1
  <EndCircuit>
  <BeginCircuit>
    <CircuitName> = "fase2"
    <TotalAmps_re> = 3893.5386189374444
    <TotalAmps_im> = 0
    <CircuitType> = 1
  <EndCircuit>
  <BeginCircuit>
    <CircuitName> = "fase3"
    <TotalAmps_re> = -6072.6690522355893
    <TotalAmps_im> = -0
    <CircuitType> = 1
  <EndCircuit>
  <BeginCircuit>
    <CircuitName> = "fase1n"
    <TotalAmps_re> = -2179.1304332981454
    <TotalAmps_im> = -0
    <CircuitType> = 1
  <EndCircuit>
  <BeginCircuit>
    <CircuitName> = "fase2n"
    <TotalAmps_re> = -3893.5386189374444
    <TotalAmps_im> = -0
    <CircuitType> = 1
  <EndCircuit>
  <BeginCircuit>
    <CircuitName> = "fase3n"
    <TotalAmps_re> = 6072.6690522355893
    <TotalAmps_im> = 0
    <CircuitType> = 1
  <EndCircuit>
[NumPoints] = 95
1428.4794272640218	44.891774518653015	0	2
1424.8509588151123	44.777745303847681	0	2
1428.1307228098256	55.9877301665544	0	2
1436.2769041160477	56.500244452823274	0	2
1437.8220167792299	58.213813351371059	0	2
1435.7291676921186	60.100920212658757	0	2
1424.3918245333909	59.387635040286952	0	2
1420.1479778009639	44.629948171300228	0	2
1412.7614527442556	44.397817269732236	0	2
1419.5441597679003	63.84374952557404	0	2
1431.1660594787654	64.574937478738391	0	2
1437.2294628518875	71.361552046427832	0	2
1436.1856964228355	72.29409018029753	0	2
1411.9327293635154	70.768222827846671	0	2
1408.2806866948724	44.257003523786302	0	2
1397.1361050303653	43.906770935455647	0	2
1407.3142916694862	74.982121113350701	0	2
1429.3431969709493	76.368860068986521	0	2
1436.518505791141	84.472377257824405	0	2
1432.8069508807964	87.75808671447983	0	2
1395.8311295126352	85.431765216671579	0	2
1428.8281317182179	33.795818870751631	0	2
1436.9904194347514	33.795818870751638	0	2
1438.6400790524292	32.182649735850063	0	2
1436.6698521451531	30.167855567408402	0	2
1425.3100930968337	30.167855567408409	0	2
1420.7517958340275	25.416146817026416	0	2
1432.3966740520364	25.416146817026412	0	2
1438.8742477382048	19.023648330845816	0	2
1437.8910954976814	18.027411711617795	0	2
1413.5901761249959	18.027411711617802	0	2
1409.2470817202586	13.531885934221897	0	2
1431.3195920686101	13.532682068758238	0	2
1438.9879291152963	5.8940529749134711	0	2
1435.4900095145492	2.3817766542397152	0	2
1398.4410805480954	2.3817766542397081	0	2
1440	0	0	20
1293.7	0	0	2
1437.1584889367111	90.418348122211256	0	20
1291.1471785676549	81.23209511507271	0	2
0	0	0	2
1500	0	0	1
1441	0	0	20
1497.0400926424074	94.185779293970057	0	1
1438.1565156651393	90.481138641740571	0	20
1451.1516226595859	19.724255573031279	0	1
1451.1990287149574	15.197476225672681	0	1
1452.8482768275646	23.464508926095888	0	1
1484.3148025193809	24.123638677451034	0	1
1484.6888357156954	23.762221889886774	0	1
1484.7985830874618	15.549342798531052	0	1
1484.8608573474899	7.3359665517385348	0	1
1484.4944751249545	6.9667958686007285	0	1
1453.0210467902014	6.9667958686007285	0	1
1451.246434770329	10.670696878314081	0	1
1468.0744398841694	6.9667958686007267	0	1
1467.8983684636678	23.779763404938993	0	1
1440.866472346112	19.616545793549896	0	1
1440.9612844568551	10.562987098832695	0	1
1450.4202874861348	50.110556313989562	0	1
1450.5624848583866	45.585762561664176	0	1
1452.0382395936272	53.885521411668243	0	1
1483.4840603843595	55.20349179828515	0	1
1483.8655804911311	54.849987435642404	0	1
1484.1473013558675	46.641207939931135	0	1
1484.3815699321417	38.430937195978288	0	1
1484.0229993907374	38.054174547729765	0	1
1452.5564736989213	37.39504479637462	0	1
1450.7046822306386	41.060968809338789	0	1
1467.606565335024	37.710299275217722	0	1
1467.0784283042633	54.515892088320783	0	1
1440.1396485795158	49.787474220614534	0	1
1440.4240433240197	40.737886715963747	0	1
1449.0527500377536	80.474876908779166	0	1
1449.2896763544188	75.954053475572579	0	1
1450.5912903974911	84.2828979266163	0	1
1482.0026131108468	86.259130843124069	0	1
1482.3914527807472	85.913693964099721	0	1
1482.8450235663718	77.712614706022435	0	1
1483.2511837009515	69.509050761009533	0	1
1482.9005821215683	69.124861408199934	0	1
1451.4547613308362	67.806891021583027	0	1
1449.5266026710838	71.433230042366006	0	1
1466.4949500414721	68.437261698235559	0	1
1465.614979058809	85.22810829966555	0	1
1438.7811319659922	79.936564215994593	0	1
1439.2549845993224	70.894917349581434	0	1
1499.6710252122682	31.413629825035436	0	1
1440.6839648872524	30.178027051917375	0	1
1498.6842451482876	62.813480593799426	0	1
1439.7359981724549	60.342817023776647	0	1
1440.6666666666667	0	0	20
1437.8238400889966	90.460208468564133	0	20
1440.3333333333333	0	0	20
1437.4911645128536	90.439278295387695	0	20
[NumSegments] = 78
0	1	1.7142857142857144	0	0	2
2	0	1.7142857142857144	0	0	2
3	2	1.7142857142857144	0	0	2
6	5	1.7142857142857144	0	0	2
1	6	1.7142857142857144	0	0	2
7	8	1.7142857142857144	0	0	2
9	7	1.7142857142857144	0	0	2
10	9	1.7142857142857144	0	0	2
13	12	1.7142857142857144	0	0	2
8	13	1.7142857142857144	0	0	2
14	15	1.7142857142857144	0	0	2
16	14	1.7142857142857144	0	0	2
17	16	1.7142857142857144	0	0	2
20	19	1.7142857142857144	0	0	2
15	20	1.7142857142857144	0	0	2
21	0	1.7142857142857144	0	0	2
22	21	1.7142857142857144	0	0	2
25	24	1.7142857142857144	0	0	2
1	25	1.7142857142857144	0	0	2
26	7	1.7142857142857144	0	0	2
27	26	1.7142857142857144	0	0	2
30	29	1.7142857142857144	0	0	2
8	30	1.7142857142857144	0	0	2
31	14	1.7142857142857144	0	0	2
32	31	1.7142857142857144	0	0	2
35	34	1.7142857142857144	0	0	2
15	35	1.7142857142857144	0	0	2
36	37	-1	4	0	2
39	38	-1	4	0	2
37	40	-1	2	0	2
40	39	-1	2	0	2
41	42	-1	10	0	1
44	43	-1	10	0	1
45	46	1.7142857142857144	0	0	1
47	45	1.7142857142857144	0	0	1
48	56	1.7142857142857144	0	0	1
50	49	1.7142857142857144	0	0	1
51	50	1.7142857142857144	0	0	1
53	55	1.7142857142857144	0	0	1
54	53	1.7142857142857144	0	0	1
46	54	1.7142857142857144	0	0	1
55	52	1.7142857142857144	0	0	1
56	47	1.7142857142857144	0	0	1
55	56	1.7142857142857144	0	0	1
45	57	1.7142857142857144	0	0	1
58	54	1.7142857142857144	0	0	1
59	60	1.7142857142857144	0	0	1
61	59	1.7142857142857144	0	0	1
62	70	1.7142857142857144	0	0	1
64	63	1.7142857142857144	0	0	1
65	64	1.7142857142857144	0	0	1
67	69	1.7142857142857144	0	0	1
68	67	1.7142857142857144	0	0	1
60	68	1.7142857142857144	0	0	1
69	66	1.7142857142857144	0	0	1
70	61	1.7142857142857144	0	0	1
69	70	1.7142857142857144	0	0	1
59	71	1.7142857142857144	0	0	1
72	68	1.7142857142857144	0	0	1
73	74	1.7142857142857144	0	0	1
75	73	1.7142857142857144	0	0	1
76	84	1.7142857142857144	0	0	1
78	77	1.7142857142857144	0	0	1
79	78	1.7142857142857144	0	0	1
81	83	1.7142857142857144	0	0	1
82	81	1.7142857142857144	0	0	1
74	82	1.7142857142857144	0	0	1
83	80	1.7142857142857144	0	0	1
84	75	1.7142857142857144	0	0	1
83	84	1.7142857142857144	0	0	1
73	85	1.7142857142857144	0	0	1
86	82	1.7142857142857144	0	0	1
87	88	1.7142857142857144	0	0	1
89	90	1.7142857142857144	0	0	1
91	42	0.17142857142857143	7	0	20
92	44	0.17142857142857143	7	0	20
93	36	0.17142857142857143	5	0	20
94	38	0.17142857142857143	5	0	20
[NumArcSegments] = 34
3	4	88.718496349799281	10	0	0	2	10
4	5	91.281503650199824	10	0	0	2	10
10	11	89.242525009118353	3.7904915342424244	0	0	2	3.7904915342424244
11	12	90.75747499087835	10	0	0	2	10
17	18	89.765319455206651	3.2018033556892735	0	0	2	3.2018033556892735
18	19	90.234680544790194	7.0199235260336446	0	0	2	7.0199235260336446
23	22	88.718496349803075	10	0	0	2	10
24	23	91.281503650205011	10	0	0	2	10
28	27	89.242525009118538	3.7904915342088983	0	0	2	3.7904915342088983
29	28	90.757474990870506	10	0	0	2	10
33	32	89.76531945520837	3.2018033556835803	0	0	2	3.2018033556835803
34	33	90.234680544785505	7.0199235256674744	0	0	2	7.0199235256674744
36	38	3.5999999999999996	0.017052315331274503	0	0	2	0.017052315331274503
37	39	3.5999999999999996	0.01898070192242041	0	0	2	0.01898070192242041
41	87	1.2000000000000002	1.7142857142857144	1	0	1	0.080000000000000002
42	58	0.41999999999999987	0.017040481663452661	0	0	1	0.017040481663452661
49	48	90.434411331330097	10	0	0	1	10
52	51	90.43441133131634	10	0	0	1	10
57	88	0.41999999999999982	0.017040481663452661	0	0	1	0.017040481663452661
58	57	0.36000000000000015	0.017040481663452661	0	0	1	0.017040481663452661
63	62	90.434411331325776	10	0	0	1	10
66	65	90.434411331302684	10	0	0	1	10
71	90	0.41999999999999937	0.017040481663452661	0	0	1	0.017040481663452661
72	71	0.36000000000000043	0.017040481663452661	0	0	1	0.017040481663452661
77	76	90.434411331291145	10	0	0	1	10
80	79	90.434411331344904	10	0	0	1	10
85	44	0.42000000000000054	0.017040481663452661	0	0	1	0.017040481663452661
86	85	0.35999999999999877	0.017040481663452661	0	0	1	0.017040481663452661
87	89	1.1999999999999995	1.7142857142857144	1	0	1	0.080000000000000002
88	72	0.41999999999999982	0.017040481663452661	0	0	1	0.017040481663452661
89	43	1.2000000000000006	1.7142857142857144	1	0	1	0.070999999999999994
90	86	0.42000000000000093	0.017040481663452661	0	0	1	0.017040481663452661
91	92	3.6000000000000001	0.17142857142857143	11	0	20	0.01
93	94	3.6000000000000001	0.17142857142857143	11	0	20	0.01
[NumHoles] = 0
[NumBlockLabels] = 22
1436.6093628624656	58.271659338951025	7	1.7142857142857144	0	0	2	1	0
1434.8604062511627	69.410193235154594	7	1.7142857142857144	0	0	2	1	0
1432.8901302057277	82.865928786278161	7	1.7142857142857144	0	0	2	1	0
1437.4334502107779	32.048774724670039	7	1.7142857142857144	0	0	2	1	0
1436.3873390959739	20.822402286496672	7	1.7142857142857144	0	0	2	1	0
1435.2652979011873	7.2689559947339006	7	1.7142857142857144	0	0	2	1	0
1345.0988710877562	42.271434977415112	1	1.7142857142857144	0	0	22	1	0
646.53081857257348	20.318049509687285	7	1.7142857142857144	0	0	2	1	0
1459.5927164444381	15.285377931221269	3	1.7142857142857144	1	0	1	1	0
1476.3800919033993	15.461181342318451	3	1.7142857142857144	3	0	1	-1	0
1446.06000888533	15.143658568591432	7	1.7142857142857144	0	0	10	1	0
1492.3581685678651	15.62850948644987	1	1.7142857142857144	0	0	12	1	0
1458.9524908390151	45.84942912171671	3	1.7142857142857144	1	0	1	-1	0
1475.7325028002722	46.376762241821794	3	1.7142857142857144	2	0	1	1	0
1445.4257191727027	45.424333196623515	7	1.7142857142857144	0	0	10	1	0
1491.7035709522324	46.878673278561791	1	1.7142857142857144	0	0	12	1	0
1457.6723204522798	76.393369237261567	3	1.7142857142857144	2	0	1	-1	0
1474.4376086480017	77.272000760639543	3	1.7142857142857144	3	0	1	1	0
1444.1574179678796	75.685083210827315	7	1.7142857142857144	0	0	10	1	0
1490.3946628491165	78.108274535219081	1	1.7142857142857144	0	0	12	1	0
1440.1223690602915	45.257668705069847	7	0.17142857142857143	0	0	20	1	0
1439.4560313533811	45.236728199017762	7	0.17142857142857143	0	0	20	1	0
