[Format]      =  4.0
[Frequency]   =  0
[Precision]   =  1e-008
[MinAngle]    =  15
[DoSmartMesh] =  1
[Depth]       =  300
[LengthUnits] =  millimeters
[ProblemType] =  planar
[Coordinates] =  cartesian
[ACSolver]    =  0
[PrevType]    =  0
[PrevSoln]    =  ""
[Comment]     =  "Add comments here."
[PointProps]   = 0
[BdryProps]   = 11
  <BeginBdry>
    <BdryName> = "A=0"
    <BdryType> = 0
    <A_0> = 0
    <A_1> = 0
    <A_2> = 0
    <Phi> = 0
    <c0> = 0
    <c0i> = 0
    <c1> = 0
    <c1i> = 0
    <Mu_ssd> = 0
    <Sigma_ssd> = 0
    <innerangle> = 0
    <outerangle> = 0
  <EndBdry>
  <BeginBdry>
    <BdryName> = "APr1"
    <BdryType> = 5
    <A_0> = 0
    <A_1> = 0
    <A_2> = 0
    <Phi> = 0
    <c0> = 0
    <c0i> = 0
    <c1> = 0
    <c1i> = 0
    <Mu_ssd> = 0
    <Sigma_ssd> = 0
    <innerangle> = 0
    <outerangle> = 0
  <EndBdry>
  <BeginBdry>
    <BdryName> = "APr2"
    <BdryType> = 5
    <A_0> = 0
    <A_1> = 0
    <A_2> = 0
    <Phi> = 0
    <c0> = 0
    <c0i> = 0
    <c1> = 0
    <c1i> = 0
    <Mu_ssd> = 0
    <Sigma_ssd> = 0
    <innerangle> = 0
    <outerangle> = 0
  <EndBdry>
  <BeginBdry>
    <BdryName> = "APr3"
    <BdryType> = 5
    <A_0> = 0
    <A_1> = 0
    <A_2> = 0
    <Phi> = 0
    <c0> = 0
    <c0i> = 0
    <c1> = 0
    <c1i> = 0
    <Mu_ssd> = 0
    <Sigma_ssd> = 0
    <innerangle> = 0
    <outerangle> = 0
  <EndBdry>
  <BeginBdry>
    <BdryName> = "APg1"
    <BdryType> = 5
    <A_0> = 0
    <A_1> = 0
    <A_2> = 0
    <Phi> = 0
    <c0> = 0
    <c0i> = 0
    <c1> = 0
    <c1i> = 0
    <Mu_ssd> = 0
    <Sigma_ssd> = 0
    <innerangle> = 0
    <outerangle> = 0
  <EndBdry>
  <BeginBdry>
    <BdryName> = "APg2"
    <BdryType> = 5
    <A_0> = 0
    <A_1> = 0
    <A_2> = 0
    <Phi> = 0
    <c0> = 0
    <c0i> = 0
    <c1> = 0
    <c1i> = 0
    <Mu_ssd> = 0
    <Sigma_ssd> = 0
    <innerangle> = 0
    <outerangle> = 0
  <EndBdry>
  <BeginBdry>
    <BdryName> = "APg3"
    <BdryType> = 5
    <A_0> = 0
    <A_1> = 0
    <A_2> = 0
    <Phi> = 0
    <c0> = 0
    <c0i> = 0
    <c1> = 0
    <c1i> = 0
    <Mu_ssd> = 0
    <Sigma_ssd> = 0
    <innerangle> = 0
    <outerangle> = 0
  <EndBdry>
  <BeginBdry>
    <BdryName> = "APs1"
    <BdryType> = 5
    <A_0> = 0
    <A_1> = 0
    <A_2> = 0
    <Phi> = 0
    <c0> = 0
    <c0i> = 0
    <c1> = 0
    <c1i> = 0
    <Mu_ssd> = 0
    <Sigma_ssd> = 0
    <innerangle> = 0
    <outerangle> = 0
  <EndBdry>
  <BeginBdry>
    <BdryName> = "APs2"
    <BdryType> = 5
    <A_0> = 0
    <A_1> = 0
    <A_2> = 0
    <Phi> = 0
    <c0> = 0
    <c0i> = 0
    <c1> = 0
    <c1i> = 0
    <Mu_ssd> = 0
    <Sigma_ssd> = 0
    <innerangle> = 0
    <outerangle> = 0
  <EndBdry>
  <BeginBdry>
    <BdryName> = "APs3"
    <BdryType> = 5
    <A_0> = 0
    <A_1> = 0
    <A_2> = 0
    <Phi> = 0
    <c0> = 0
    <c0i> = 0
    <c1> = 0
    <c1i> = 0
    <Mu_ssd> = 0
    <Sigma_ssd> = 0
    <innerangle> = 0
    <outerangle> = 0
  <EndBdry>
  <BeginBdry>
    <BdryName> = "AGap"
    <BdryType> = 7
    <A_0> = 0
    <A_1> = 0
    <A_2> = 0
    <Phi> = 0
    <c0> = 0
    <c0i> = 0
    <c1> = 0
    <c1i> = 0
    <Mu_ssd> = 0
    <Sigma_ssd> = 0
    <innerangle> = 18.666666666666668
    <outerangle> = 0
  <EndBdry>
[BlockProps]  = 17
  <BeginBlock>
    <BlockName> = "M270-35A"
    <Mu_x> = 1
    <Mu_y> = 1
    <H_c> = 0
    <H_cAngle> = 0
    <J_re> = 0
    <J_im> = 0
    <Sigma> = 0
    <d_lam> = 0
    <Phi_h> = 0
    <Phi_hx> = 0
    <Phi_hy> = 0
    <LamType> = 0
    <LamFill> = 1
    <NStrands> = 0
    <WireD> = 0
    <BHPoints> = 200
      0	0
      0.0045422769999999999	3.2767874890000002
      0.0090353559999999996	6.114592773
      0.013222249	8.4602422570000009
      0.017196487	10.462328400000001
      0.020991169	12.199266809999999
      0.024640190999999999	13.72982376
      0.028168996000000002	15.09561901
      0.031597466999999997	16.327217480000002
      0.034941272000000002	17.447599879999999
      0.038212956999999999	18.47443998
      0.041422729999999998	19.421601849999998
      0.044579012000000001	20.300151339999999
      0.047688851999999997	21.119056130000001
      0.050758219	21.885681389999998
      0.053792226999999998	22.60614816
      0.056795300999999999	23.285597330000002
      0.059771310000000001	23.928387470000001
      0.062723663999999998	24.538245379999999
      0.065655396000000005	25.11838217
      0.068569221	25.67158405
      0.071467592999999996	26.200284
      0.074352739000000001	26.70661905
      0.077226698999999996	27.19247648
      0.080091349000000006	27.65953137
      0.082948429000000004	28.109277410000001
      0.085799557999999998	28.54305239
      0.088646256000000007	28.96205934
      0.091489953999999998	29.36738437
      0.094332005999999996	29.760011540000001
      0.097173704999999999	30.140835630000002
      0.100016285	30.510672870000001
      0.102860934	30.870270300000001
      0.105708802	31.220313650000001
      0.108561001	31.561434299999998
      0.11141862	31.894215259999999
      0.114282722	32.21919639
      0.117154355	32.536878999999999
      0.120034552	32.847729870000002
      0.12292433699999999	33.152184810000001
      0.12582473199999999	33.45065185
      0.12873675200000001	33.743513989999997
      0.13166142	34.031131799999997
      0.13459976100000001	34.313845620000002
      0.137552811	34.591977620000002
      0.14052161499999999	34.865833639999998
      0.14350723800000001	35.135704879999999
      0.14651076099999999	35.401869419999997
      0.14953328699999999	35.664593680000003
      0.15257594699999999	35.924133650000002
      0.155639899	36.180736189999998
      0.158726334	36.434640119999997
      0.161836481	36.686077320000003
      0.16497160599999999	36.93527375
      0.16813302299999999	37.182450420000002
      0.17132209400000001	37.427824389999998
      0.17454023399999999	37.671609650000001
      0.17778891699999999	37.914018050000003
      0.18106968000000001	38.155260249999998
      0.18438413100000001	38.395546590000002
      0.18773395400000001	38.635088090000004
      0.191120915	38.87409736
      0.19454686800000001	39.112789630000002
      0.19801376800000001	39.351383830000003
      0.20152367299999999	39.590103640000002
      0.20507876	39.829178749999997
      0.208681327	40.068846100000002
      0.21233381500000001	40.309351300000003
      0.216038808	40.550950149999998
      0.21979905799999999	40.793910310000001
      0.22361749	41.038513199999997
      0.227497227	41.285056060000002
      0.2314416	41.53385428
      0.23545417299999999	41.785244059999997
      0.23953876299999999	42.039585369999998
      0.24369946200000001	42.297265359999997
      0.247940667	42.558702250000003
      0.25226710400000002	42.824349750000003
      0.25668386300000001	43.0947022
      0.26119642799999998	43.370300520000001
      0.26581071499999998	43.651739030000002
      0.27054201700000002	43.94020278
      0.275438138	44.23873004
      0.28051031599999998	44.548036490000001
      0.28576849199999999	44.868763260000001
      0.29122336399999998	45.201605100000002
      0.296886504	45.547319020000003
      0.30277045699999999	45.906731970000003
      0.30888884599999999	46.280749559999997
      0.31525650100000002	46.670366299999998
      0.321889598	47.076677459999999
      0.328805825	47.50089294
      0.33602457000000002	47.944353649999996
      0.34356714500000002	48.408550759999997
      0.351457032	48.895148689999999
      0.35972019	49.406012390000001
      0.36838539799999998	49.943240269999997
      0.37748466600000002	50.509203810000002
      0.38705371900000002	51.106595769999998
      0.39713256899999999	51.738489119999997
      0.40776619800000002	52.408409570000003
      0.41900536300000002	53.120425429999997
      0.43090757000000002	53.879259759999997
      0.44353822799999998	54.690431349999997
      0.45697202599999998	55.560433060000001
      0.47129457299999999	56.49695913
      0.486604327	57.509196449999997
      0.503014823	58.60819978
      0.520657166	59.807376320000003
      0.53968265500000001	61.123111049999999
      0.56026517099999995	62.575567960000001
      0.58260257699999995	64.189698669999999
      0.60691558199999995	65.996464399999994
      0.63344113800000001	68.034201780000004
      0.662415215	70.349880479999996
      0.69403682899999997	72.999622560000006
      0.72840307800000004	76.047204840000006
      0.76540934699999996	79.558509650000005
      0.80463064699999998	83.589963030000007
      0.84524547999999999	88.171938179999998
      0.88609953900000005	93.294734669999997
      0.92594964300000004	98.90894376
      0.963771241	104.9435902
      0.99893980100000002	111.3300564
      1.0312218310000001	118.0174305
      1.0606584889999999	124.9760964
      1.0874410889999999	132.19454709999999
      1.1118223309999999	139.6744898
      1.1340651580000001	147.42664859999999
      1.1544176930000001	155.46782519999999
      1.173103241	163.8190534
      1.1903180360000001	172.50453999999999
      1.2062325739999999	181.55112829999999
      1.220994358	190.98810510000001
      1.234730984	200.84723579999999
      1.2475531	211.16296399999999
      1.2595570490000001	221.97273730000001
      1.270827143	233.31744900000001
      1.281437594	245.2419931
      1.291454146	257.79594609999998
      1.3009354369999999	271.03439809999998
      1.309934159	285.01896390000002
      1.318498043	299.81902289999999
      1.326670706	315.51324579999999
      1.3344924010000001	332.19149570000002
      1.3420006879999999	349.95721329999998
      1.3492310569999999	368.93044570000001
      1.356217531	389.25173360000002
      1.362993272	411.08716509999999
      1.3695912379999999	434.63503709999998
      1.3760449050000001	460.1347695
      1.382389146	487.87903890000001
      1.3886613240000001	518.23060969999995
      1.394902732	551.64618570000005
      1.401160583	588.71104339999999
      1.4074908660000001	630.19074279999995
      1.4139626249999999	677.11087850000001
      1.420664664	730.8848299
      1.4277165590000001	793.52783980000004
      1.435287779	868.03580320000003
      1.4436331710000001	959.10175079999999
      1.453164339	1074.5891859999999
      1.464608755	1228.9034079999999
      1.479413587	1451.8548430000001
      1.5007295060000001	1812.597843
      1.531321148	2396.2922779999999
      1.5749716949999999	3340.7297119999998
      1.6351726849999999	4868.8615820000005
      1.6746062129999999	6056.7860730000002
      1.7053540309999999	7126.7301200000002
      1.7307497590000001	8135.9466300000004
      1.752580204	9119.3875740000003
      1.771845345	10098.25848
      1.789165838	11087.22133
      1.804957089	12097.58993
      1.819514077	13138.977849999999
      1.8330565510000001	14220.25051
      1.845754994	15350.15127
      1.8577465099999999	16537.778849999999
      1.869145125	17793.012470000001
      1.8800488470000001	19126.948680000001
      1.8905448170000001	20552.403480000001
      1.9007133519999999	22084.53774
      1.9106314310000001	23741.68173
      1.920376064	25546.46932
      1.930027954	27527.455720000002
      1.9396760099999999	29721.505959999999
      1.9494234969999999	32177.45292
      1.959397184	34961.935420000002
      1.969762051	38169.180130000001
      1.980746793	41938.394229999998
      1.9926918389999999	46487.096960000003
      2.0061495709999999	52181.595710000001
      2.022124024	59707.652569999998
      2.042772002	70576.241299999994
      2.0725625070000002	88161.987269999998
      2.1158769670000002	116616.322
      2.1803765140000002	162656.4026
      2.2792825830000001	237150.818
      2.3747656959999999	310949.48619999998
  <EndBlock>
  <BeginBlock>
    <BlockName> = "ShaftAir"
    <Mu_x> = 1
    <Mu_y> = 1
    <H_c> = 0
    <H_cAngle> = 0
    <J_re> = 0
    <J_im> = 0
    <Sigma> = 0
    <d_lam> = 0
    <Phi_h> = 0
    <Phi_hx> = 0
    <Phi_hy> = 0
    <LamType> = 0
    <LamFill> = 1
    <NStrands> = 0
    <WireD> = 0
    <BHPoints> = 3
      -100	-7.9577471545947675e-011
      0	0
      100	7.9577471545947675e-011
  <EndBlock>
  <BeginBlock>
    <BlockName> = "Copper"
    <Mu_x> = 1
    <Mu_y> = 1
    <H_c> = 0
    <H_cAngle> = 0
    <J_re> = 0
    <J_im> = 0
    <Sigma> = 58
    <d_lam> = 0
    <Phi_h> = 0
    <Phi_hx> = 0
    <Phi_hy> = 0
    <LamType> = 0
    <LamFill> = 1
    <NStrands> = 0
    <WireD> = 0
    <BHPoints> = 0
  <EndBlock>
  <BeginBlock>
    <BlockName> = "Aluminium"
    <Mu_x> = 1
    <Mu_y> = 1
    <H_c> = 0
    <H_cAngle> = 0
    <J_re> = 0
    <J_im> = 0
    <Sigma> = 29
    <d_lam> = 0
    <Phi_h> = 0
    <Phi_hx> = 0
    <Phi_hy> = 0
    <LamType> = 0
    <LamFill> = 1
    <NStrands> = 0
    <WireD> = 0
    <BHPoints> = 0
  <EndBlock>
  <BeginBlock>
    <BlockName> = "BMN-52UH"
    <Mu_x> = 1.05
    <Mu_y> = 1.05
    <H_c> = 1098926.9880154678
    <H_cAngle> = 0
    <J_re> = 0
    <J_im> = 0
    <Sigma> = 0.66600000000000004
    <d_lam> = 0
    <Phi_h> = 0
    <Phi_hx> = 0
    <Phi_hy> = 0
    <LamType> = 0
    <LamFill> = 1
    <NStrands> = 0
    <WireD> = 0
    <BHPoints> = 0
  <EndBlock>
  <BeginBlock>
    <BlockName> = "DW235"
    <Mu_x> = 1
    <Mu_y> = 1
    <H_c> = 0
    <H_cAngle> = 0
    <J_re> = 0
    <J_im> = 0
    <Sigma> = 0
    <d_lam> = 0
    <Phi_h> = 0
    <Phi_hx> = 0
    <Phi_hy> = 0
    <LamType> = 0
    <LamFill> = 1
    <NStrands> = 0
    <WireD> = 0
    <BHPoints> = 0
  <EndBlock>
  <BeginBlock>
    <BlockName> = "Air"
    <Mu_x> = 1
    <Mu_y> = 1
    <H_c> = 0
    <H_cAngle> = 0
    <J_re> = 0
    <J_im> = 0
    <Sigma> = 0
    <d_lam> = 0
    <Phi_h> = 0
    <Phi_hx> = 0
    <Phi_hy> = 0
    <LamType> = 0
    <LamFill> = 1
    <NStrands> = 0
    <WireD> = 0
    <BHPoints> = 0
  <EndBlock>
  <BeginBlock>
    <BlockName> = "BMN-52UH_1"
    <Mu_x> = 1.05
    <Mu_y> = 1.05
    <H_c> = 1023101.0258424005
    <H_cAngle> = 0
    <J_re> = 0
    <J_im> = 0
    <Sigma> = 0.66600000000000004
    <d_lam> = 0
    <Phi_h> = 0
    <Phi_hx> = 0
    <Phi_hy> = 0
    <LamType> = 0
    <LamFill> = 1
    <NStrands> = 0
    <WireD> = 0
    <BHPoints> = 0
  <EndBlock>
  <BeginBlock>
    <BlockName> = "BMN-52UH_2"
    <Mu_x> = 1.05
    <Mu_y> = 1.05
    <H_c> = 1023101.0258424005
    <H_cAngle> = 0
    <J_re> = 0
    <J_im> = 0
    <Sigma> = 0.66600000000000004
    <d_lam> = 0
    <Phi_h> = 0
    <Phi_hx> = 0
    <Phi_hy> = 0
    <LamType> = 0
    <LamFill> = 1
    <NStrands> = 0
    <WireD> = 0
    <BHPoints> = 0
  <EndBlock>
  <BeginBlock>
    <BlockName> = "BMN-52UH_3"
    <Mu_x> = 1.05
    <Mu_y> = 1.05
    <H_c> = 1023101.0258424005
    <H_cAngle> = 0
    <J_re> = 0
    <J_im> = 0
    <Sigma> = 0.66600000000000004
    <d_lam> = 0
    <Phi_h> = 0
    <Phi_hx> = 0
    <Phi_hy> = 0
    <LamType> = 0
    <LamFill> = 1
    <NStrands> = 0
    <WireD> = 0
    <BHPoints> = 0
  <EndBlock>
  <BeginBlock>
    <BlockName> = "BMN-52UH_4"
    <Mu_x> = 1.05
    <Mu_y> = 1.05
    <H_c> = 1023101.0258424005
    <H_cAngle> = 0
    <J_re> = 0
    <J_im> = 0
    <Sigma> = 0.66600000000000004
    <d_lam> = 0
    <Phi_h> = 0
    <Phi_hx> = 0
    <Phi_hy> = 0
    <LamType> = 0
    <LamFill> = 1
    <NStrands> = 0
    <WireD> = 0
    <BHPoints> = 0
  <EndBlock>
  <BeginBlock>
    <BlockName> = "BMN-52UH_5"
    <Mu_x> = 1.05
    <Mu_y> = 1.05
    <H_c> = 1023101.0258424005
    <H_cAngle> = 0
    <J_re> = 0
    <J_im> = 0
    <Sigma> = 0.66600000000000004
    <d_lam> = 0
    <Phi_h> = 0
    <Phi_hx> = 0
    <Phi_hy> = 0
    <LamType> = 0
    <LamFill> = 1
    <NStrands> = 0
    <WireD> = 0
    <BHPoints> = 0
  <EndBlock>
  <BeginBlock>
    <BlockName> = "BMN-52UH_6"
    <Mu_x> = 1.05
    <Mu_y> = 1.05
    <H_c> = 1023101.0258424005
    <H_cAngle> = 0
    <J_re> = 0
    <J_im> = 0
    <Sigma> = 0.66600000000000004
    <d_lam> = 0
    <Phi_h> = 0
    <Phi_hx> = 0
    <Phi_hy> = 0
    <LamType> = 0
    <LamFill> = 1
    <NStrands> = 0
    <WireD> = 0
    <BHPoints> = 0
  <EndBlock>
  <BeginBlock>
    <BlockName> = "BMN-52UH_7"
    <Mu_x> = 1.05
    <Mu_y> = 1.05
    <H_c> = 1023101.0258424005
    <H_cAngle> = 0
    <J_re> = 0
    <J_im> = 0
    <Sigma> = 0.66600000000000004
    <d_lam> = 0
    <Phi_h> = 0
    <Phi_hx> = 0
    <Phi_hy> = 0
    <LamType> = 0
    <LamFill> = 1
    <NStrands> = 0
    <WireD> = 0
    <BHPoints> = 0
  <EndBlock>
  <BeginBlock>
    <BlockName> = "BMN-52UH_8"
    <Mu_x> = 1.05
    <Mu_y> = 1.05
    <H_c> = 1023101.0258424005
    <H_cAngle> = 0
    <J_re> = 0
    <J_im> = 0
    <Sigma> = 0.66600000000000004
    <d_lam> = 0
    <Phi_h> = 0
    <Phi_hx> = 0
    <Phi_hy> = 0
    <LamType> = 0
    <LamFill> = 1
    <NStrands> = 0
    <WireD> = 0
    <BHPoints> = 0
  <EndBlock>
  <BeginBlock>
    <BlockName> = "BMN-52UH_9"
    <Mu_x> = 1.05
    <Mu_y> = 1.05
    <H_c> = 1023101.0258424005
    <H_cAngle> = 0
    <J_re> = 0
    <J_im> = 0
    <Sigma> = 0.66600000000000004
    <d_lam> = 0
    <Phi_h> = 0
    <Phi_hx> = 0
    <Phi_hy> = 0
    <LamType> = 0
    <LamFill> = 1
    <NStrands> = 0
    <WireD> = 0
    <BHPoints> = 0
  <EndBlock>
  <BeginBlock>
    <BlockName> = "BMN-52UH_10"
    <Mu_x> = 1.05
    <Mu_y> = 1.05
    <H_c> = 1023101.0258424005
    <H_cAngle> = 0
    <J_re> = 0
    <J_im> = 0
    <Sigma> = 0.66600000000000004
    <d_lam> = 0
    <Phi_h> = 0
    <Phi_hx> = 0
    <Phi_hy> = 0
    <LamType> = 0
    <LamFill> = 1
    <NStrands> = 0
    <WireD> = 0
    <BHPoints> = 0
  <EndBlock>
[CircuitProps]  = 6
  <BeginCircuit>
    <CircuitName> = "fase1"
    <TotalAmps_re> = 5361.3449158513022
    <TotalAmps_im> = 0
    <CircuitType> = 1
  <EndCircuit>
  <BeginCircuit>
    <CircuitName> = "fase2"
    <TotalAmps_re> = -13690.678707165021
    <TotalAmps_im> = -0
    <CircuitType> = 1
  <EndCircuit>
  <BeginCircuit>
    <CircuitName> = "fase3"
    <TotalAmps_re> = 8329.333791313722
    <TotalAmps_im> = 0
    <CircuitType> = 1
  <EndCircuit>
  <BeginCircuit>
    <CircuitName> = "fase1n"
    <TotalAmps_re> = -5361.3449158513022
    <TotalAmps_im> = -0
    <CircuitType> = 1
  <EndCircuit>
  <BeginCircuit>
    <CircuitName> = "fase2n"
    <TotalAmps_re> = 13690.678707165021
    <TotalAmps_im> = 0
    <CircuitType> = 1
  <EndCircuit>
  <BeginCircuit>
    <CircuitName> = "fase3n"
    <TotalAmps_re> = -8329.333791313722
    <TotalAmps_im> = -0
    <CircuitType> = 1
  <EndCircuit>
[NumPoints] = 229
409.25803897269572	243.31873788076385	0	2
413.14362234346032	242.27759895444368	0	2
442.10502813445572	258.99847438398479	0	2
443.14616706077589	262.88405775474945	0	2
420.69977681115188	301.76234611361696	0	2
415.2169637773768	329.60009724301904	0	2
391.61929065970418	327.8583682107793	0	2
376.03417565208696	300.86415717578228	0	2
341.46603135655039	216.5339513206236	0	2
345.351614727315	215.49281239430343	0	2
374.3130205183104	232.21368782384462	0	2
375.35415944463057	236.09927119460923	0	2
334.38312834841014	307.06317869174745	0	2
364.18243425087127	358.67709054509726	0	2
359.46952234962617	389.64472742851626	0	2
334.70113935954072	385.87526941633462	0	2
289.19895756430316	307.06317869174757	0	2
264.09518343136591	191.36847694603279	0	2
267.98076680213052	190.32733801971261	0	2
296.94217259312592	207.04821344925381	0	2
297.98331151944609	210.93379682001842	0	2
242.12450201722467	307.68409292817711	0	2
302.33085438098198	411.96455416059928	0	2
295.86346714366192	439.89335062130954	0	2
269.78478558603763	433.85438891706622	0	2
196.94033123311777	307.68409292817705	0	2
386.8116487230717	282.19702623963138	0	2
300.49500026032996	287.49785881776188	0	2
335.80535057063236	309.52653984028984	0	2
301.91722248255206	329.09185971427553	0	2
363.82535057063234	358.05860346836982	0	2
329.93722248255204	377.62392334235545	0	2
208.23637392914449	288.11877305419148	0	2
243.54672423944689	310.1474540767195	0	2
209.65859615136668	329.71277395070501	0	2
301.97172423944687	411.34252250893115	0	2
268.08359615136669	430.90784238291667	0	2
416.39036663417659	236.65407288373896	0	2
415.34922770785641	232.76848951297436	0	2
445.35177242517199	253.3749483132801	0	2
449.23735579593659	252.33380938695993	0	2
471.68374604556061	213.45552102809239	0	2
493.05053919096429	194.78839009194175	0	2
479.74332104369938	175.22307021795598	0	2
448.57309102846517	175.22307021795592	0	2
359.29805723007848	191.33686539467908	0	2
358.25691830375831	187.45128202391447	0	2
388.25946302107388	208.05774082422028	0	2
392.14504639183849	207.0166018979001	0	2
433.11607748805892	136.05269440076185	0	2
492.71468929298118	136.05269440076188	0	2
517.17699357857146	116.48737452677608	0	2
501.52835568648055	96.922054652790536	0	2
410.52399209600554	96.922054652790536	0	2
298.81869316080423	136.91448276642217	0	2
297.77755423448406	133.02889939565756	0	2
327.78009895179963	153.63535819596336	0	2
331.66568232256424	152.59421926964319	0	2
387.52449182478563	55.843923161484497	0	2
507.93719655230024	55.843923161484469	0	2
528.89055016574025	36.278603287498953	0	2
510.62131513857196	16.713283413513267	0	2
364.93240643273219	16.713283413513295	0	2
437.79561795748043	193.89020115410682	0	2
399.22794939997874	116.48737452677622	0	2
435.96052193250335	136.05269440076185	0	2
435.96052193250335	96.922054652790521	0	2
492.00052193250332	136.05269440076182	0	2
492.00052193250332	96.922054652790507	0	2
353.63636373670545	36.278603287498868	0	2
390.36893626923006	55.843923161484497	0	2
390.36893626923001	16.713283413513295	0	2
507.21893626923008	55.843923161484497	0	2
507.21893626922997	16.713283413513267	0	2
532.97777777777776	0	0	20
247.11000000000001	0	0	2
266.48888888888894	461.57229520813274	0	20
123.55500000000004	214.00353752917263	0	2
0	0	0	2
800	0	0	1
537.95555555555552	0	0	20
400.00000000000011	692.8203230275509	0	1
268.97777777777782	465.88317721808198	0	20
543.57535758967003	40.280548353368374	0	1
544.075769655964	31.688804983586362	0	1
545.20086393685312	48.152882979758964	0	1
650.68555308822431	60.482274876198815	0	1
670.4762141753182	44.170216356990565	0	1
670.86308235829222	39.073325027839758	0	1
671.07054300695324	33.965984399741075	0	1
653.30741369905684	15.466666666666669	0	1
547.10461924477988	15.466666666666676	0	1
544.57618172225796	23.09706161380435	0	1
608.42129431163426	15.466666666666672	0	1
606.10293758245189	55.271314472739931	0	1
536.47627735307435	39.867074014449436	0	1
537.47710148566227	22.683587274885411	0	1
535.22360924044847	103.11343300469341	0	1
536.71807822458277	94.637878224990402	0	1
535.92420222747705	111.12124748937818	0	1
639.26428661245473	135.61329740773166	0	1
660.81484473810337	121.7090907107883	0	1
661.79081002420378	116.69157539217719	0	1
662.5897939551221	111.64285348556513	0	1
647.09441227795048	91.206448075682928	0	1
541.6097231265793	78.87705617924307	0	1
538.21254720871684	86.16232344528737	0	1
602.51179677217806	85.995487672224044	0	1
595.5880783822895	125.26184590095207	0	1
528.22053188569498	101.8786015190619	0	1
531.20946985396336	84.927491959655868	0	1
519.63387974372688	164.55188536406271	0	1
522.10219551642842	156.30713651315651	0	1
519.40008505230742	172.58688775341301	0	1
619.19806730783409	208.91038273425133	0	1
642.21708814302337	197.60205840270652	0	1
643.76895227600846	192.73177238185264	0	1
645.14865460216242	187.80994449951305	0	1
632.13056901082177	165.71281873766753	0	1
528.79048462584421	141.22076881931406	0	1
524.57051128912974	148.06238766225033	0	1
588.45436078065666	155.36136723088794	0	1
577.01891214375769	193.55842574803196	0	1
512.82150987837224	162.51239570922829	0	1
517.75814142377521	146.0228980074159	0	1
497.01699344701876	223.76505575999079	0	1
500.42577627181765	215.86260892235615	0	1
495.85197274928169	231.71858643060779	0	1
590.75825636718184	279.38231351668549	0	1
614.9344471438751	270.82279723787514	0	1
617.04122382354421	266.16560277831337	0	1
618.98298643782971	261.43722819903843	0	1
608.61824420762684	237.97820780389543	0	1
508.82026195210011	201.65471282305708	0	1
503.83455909661654	207.96016208472147	0	1
566.43908904355044	222.62625081767607	0	1
550.64655498512741	259.23745993323013	0	1
490.48745668698126	220.94848853482347	0	1
497.30502233657904	205.14359485955416	0	1
467.67880493858303	279.95218764211245	0	1
471.98195687548593	272.49890985470813	0	1
465.59831314089087	287.71668873582973	0	1
554.3294534454327	346.07607778466331	0	1
579.33587265724088	340.38112233254617	0	1
581.96907134314279	335.99999999999994	0	1
584.44663523726422	331.52902187852402	0	1
576.87540172631418	307.02534985735633	0	1
481.96911810841397	259.36162277127869	0	1
476.28510881238884	265.04563206730381	0	1
536.76370034425975	286.88049627390097	0	1
516.82764779561512	321.41075219051652	0	1
461.520402067227	276.39663208655691	0	1
470.12670594103281	261.49007651174827	0	1
432.01606288880657	332.35344643984126	0	1
437.15539118985475	325.45013049876394	0	1
429.04823507367314	339.82391639924276	0	1
510.40429560907899	408.08975678853835	0	1
535.90277433427161	405.33637666599992	0	1
539.02678553138946	401.29057362427227	0	1
542.00664590389954	397.13745426979739	0	1
537.33130905710902	371.92050075103674	0	1
448.6001687525673	313.56111170220316	0	1
442.29471949090282	318.54681455768667	0	1
499.82950340729161	347.25517515689	0	1
476.01953327916891	379.23751539939229	0	1
426.31207574032629	328.1069853432881	0	1
436.59073234242254	314.30035346113351	0	1
390.51104470505339	380.26019502145294	0	1
396.4170487714099	374.00019643227853	0	1
386.69601565241749	387.33560855580873	0	1
459.57679526495696	464.58472190325011	0	1
485.22251032100502	464.81015185306853	0	1
488.79508713708873	461.15438064778891	0	1
492.2369464883518	457.37528387497491	0	1
490.52073221610868	431.78606489568529	0	1
409.16467168070278	363.52022450638975	0	1
402.32305283776645	367.74019784310406	0	1
456.13596988619855	402.93382350653928	0	1
428.77407117896053	431.93574178833791	0	1
385.33860992053394	375.38025448549752	0	1
397.150618053247	362.86025730714869	0	1
343.72503455706891	423.02457679563668	0	1
350.31784581539119	417.49255130035692	0	1
339.11439599024652	429.60925107465238	0	1
402.534307161463	514.7969756418247	0	1
427.98044424704455	517.99816711065012	0	1
431.95327370935439	514.78186577595329	0	1
435.81058679609896	511.42789738567296	0	1
437.07670395229729	485.81246323465632	0	1
364.19592433975782	408.56334988721488	0	1
356.91065707371342	411.96052580507722	0	1
406.27397986630092	453.16348311974411	0	1
375.73017532106655	478.79277824840119	0	1
339.15410044374238	417.57714964456841	0	1
352.33972296038695	406.51309865400901	0	1
292.290732971458	460.06827686050417	0	1
299.48119495933872	455.33903561384227	0	1
286.9468358675893	466.07316546045871	0	1
340.04823309472783	558.0474834107597	0	1
364.95067685819834	564.18114577556867	0	1
369.27003326358164	561.44780926949318	0	1
373.49063654346787	558.56432593054637	0	1
377.72196306557362	533.26908141183083	0	1
314.30205189435713	448.0813568446585	0	1
306.67165694721939	450.60979436718037	0	1
350.91783122517722	497.26488401840732	0	1
317.60517340101649	519.17496374395046	0	1
288.38311357184341	454.12703020156772	0	1
302.7640375476048	444.66854770824386	0	1
794.59068619355446	92.874331300184181	0	1
534.31809253815459	62.452828114301632	0	1
778.43589646385908	184.49269659395213	0	1
523.45489393325272	124.06108886517758	0	1
751.75409662872676	273.61611466053495	0	1
505.51286586633933	183.99163621395084	0	1
714.90611225872976	359.03934416036975	0	1
480.73464348775917	241.43401231761749	0	1
668.39024913034916	439.60718245664469	0	1
449.45530974854142	295.61140758084593	0	1
612.83555449518246	514.23008774923142	0	1
412.09786397831601	345.79116567314981	0	1
548.99331029498694	581.89891325843894	0	1
369.16750154502898	391.29469144889691	0	1
477.72687336222901	641.69855420403496	0	1
321.24478195424552	431.50662778253547	0	1
536.2962962962963	0	0	20
268.14814814814821	464.4462165480989	0	20
534.63703703703698	0	0	20
267.31851851851854	463.00925587811582	0	20
[NumSegments] = 205
2	1	11.851851851851851	0	0	2
4	3	11.851851851851851	0	0	2
7	6	11.851851851851851	0	0	2
0	26	11.851851851851851	0	0	2
10	9	11.851851851851851	0	0	2
12	11	11.851851851851851	0	0	2
13	30	11.851851851851851	0	0	2
16	29	11.851851851851851	0	0	2
8	27	11.851851851851851	0	0	2
19	18	11.851851851851851	0	0	2
21	20	11.851851851851851	0	0	2
22	35	11.851851851851851	0	0	2
25	34	11.851851851851851	0	0	2
17	32	11.851851851851851	0	0	2
3	0	11.851851851851851	0	0	2
26	7	11.851851851851851	0	0	2
26	4	11.851851851851851	0	0	2
11	8	11.851851851851851	0	0	2
27	16	11.851851851851851	0	0	2
27	12	11.851851851851851	0	0	2
28	12	11.851851851851851	0	0	2
29	31	11.851851851851851	0	0	2
28	29	11.851851851851851	0	0	2
30	28	11.851851851851851	0	0	2
31	15	11.851851851851851	0	0	2
31	30	11.851851851851851	0	0	2
20	17	11.851851851851851	0	0	2
32	25	11.851851851851851	0	0	2
32	21	11.851851851851851	0	0	2
33	21	11.851851851851851	0	0	2
34	36	11.851851851851851	0	0	2
33	34	11.851851851851851	0	0	2
35	33	11.851851851851851	0	0	2
36	24	11.851851851851851	0	0	2
36	35	11.851851851851851	0	0	2
39	37	11.851851851851851	0	0	2
41	40	11.851851851851851	0	0	2
44	43	11.851851851851851	0	0	2
38	63	11.851851851851851	0	0	2
47	45	11.851851851851851	0	0	2
49	48	11.851851851851851	0	0	2
50	67	11.851851851851851	0	0	2
53	66	11.851851851851851	0	0	2
46	64	11.851851851851851	0	0	2
56	54	11.851851851851851	0	0	2
58	57	11.851851851851851	0	0	2
59	72	11.851851851851851	0	0	2
62	71	11.851851851851851	0	0	2
55	69	11.851851851851851	0	0	2
40	38	11.851851851851851	0	0	2
63	44	11.851851851851851	0	0	2
63	41	11.851851851851851	0	0	2
48	46	11.851851851851851	0	0	2
64	53	11.851851851851851	0	0	2
64	49	11.851851851851851	0	0	2
65	49	11.851851851851851	0	0	2
66	68	11.851851851851851	0	0	2
65	66	11.851851851851851	0	0	2
67	65	11.851851851851851	0	0	2
68	52	11.851851851851851	0	0	2
68	67	11.851851851851851	0	0	2
57	55	11.851851851851851	0	0	2
69	62	11.851851851851851	0	0	2
69	58	11.851851851851851	0	0	2
70	58	11.851851851851851	0	0	2
71	73	11.851851851851851	0	0	2
70	71	11.851851851851851	0	0	2
72	70	11.851851851851851	0	0	2
73	61	11.851851851851851	0	0	2
73	72	11.851851851851851	0	0	2
74	75	-1	4	0	2
77	76	-1	4	0	2
75	78	-1	2	0	2
78	77	-1	2	0	2
79	80	-1	10	0	1
82	81	-1	10	0	1
83	84	11.851851851851851	0	0	1
85	83	11.851851851851851	0	0	1
86	94	11.851851851851851	0	0	1
88	87	11.851851851851851	0	0	1