[Format]      =  4.0
[Frequency]   =  0
[Precision]   =  1e-008
[MinAngle]    =  15
[DoSmartMesh] =  1
[Depth]       =  110
[LengthUnits] =  millimeters
[ProblemType] =  planar
[Coordinates] =  cartesian
[ACSolver]    =  0
[PrevType]    =  0
[PrevSoln]    =  ""
[Comment]     =  "Add comments here."
[PointProps]   = 0
[BdryProps]   = 11
  <BeginBdry>
    <BdryName> = "A=0"
    <BdryType> = 0
    <A_0> = 0
    <A_1> = 0
    <A_2> = 0
    <Phi> = 0
    <c0> = 0
    <c0i> = 0
    <c1> = 0
    <c1i> = 0
    <Mu_ssd> = 0
    <Sigma_ssd> = 0
    <innerangle> = 0
    <outerangle> = 0
  <EndBdry>
  <BeginBdry>
    <BdryName> = "APr1"
    <BdryType> = 5
    <A_0> = 0
    <A_1> = 0
    <A_2> = 0
    <Phi> = 0
    <c0> = 0
    <c0i> = 0
    <c1> = 0
    <c1i> = 0
    <Mu_ssd> = 0
    <Sigma_ssd> = 0
    <innerangle> = 0
    <outerangle> = 0
  <EndBdry>
  <BeginBdry>
    <BdryName> = "APr2"
    <BdryType> = 5
    <A_0> = 0
    <A_1> = 0
    <A_2> = 0
    <Phi> = 0
    <c0> = 0
    <c0i> = 0
    <c1> = 0
    <c1i> = 0
    <Mu_ssd> = 0
    <Sigma_ssd> = 0
    <innerangle> = 0
    <outerangle> = 0
  <EndBdry>
  <BeginBdry>
    <BdryName> = "APr3"
    <BdryType> = 5
    <A_0> = 0
    <A_1> = 0
    <A_2> = 0
    <Phi> = 0
    <c0> = 0
    <c0i> = 0
    <c1> = 0
    <c1i> = 0
    <Mu_ssd> = 0
    <Sigma_ssd> = 0
    <innerangle> = 0
    <outerangle> = 0
  <EndBdry>
  <BeginBdry>
    <BdryName> = "APg1"
    <BdryType> = 5
    <A_0> = 0
    <A_1> = 0
    <A_2> = 0
    <Phi> = 0
    <c0> = 0
    <c0i> = 0
    <c1> = 0
    <c1i> = 0
    <Mu_ssd> = 0
    <Sigma_ssd> = 0
    <innerangle> = 0
    <outerangle> = 0
  <EndBdry>
  <BeginBdry>
    <BdryName> = "APg2"
    <BdryType> = 5
    <A_0> = 0
    <A_1> = 0
    <A_2> = 0
    <Phi> = 0
    <c0> = 0
    <c0i> = 0
    <c1> = 0
    <c1i> = 0
    <Mu_ssd> = 0
    <Sigma_ssd> = 0
    <innerangle> = 0
    <outerangle> = 0
  <EndBdry>
  <BeginBdry>
    <BdryName> = "APg3"
    <BdryType> = 5
    <A_0> = 0
    <A_1> = 0
    <A_2> = 0
    <Phi> = 0
    <c0> = 0
    <c0i> = 0
    <c1> = 0
    <c1i> = 0
    <Mu_ssd> = 0
    <Sigma_ssd> = 0
    <innerangle> = 0
    <outerangle> = 0
  <EndBdry>
  <BeginBdry>
    <BdryName> = "APs1"
    <BdryType> = 5
    <A_0> = 0
    <A_1> = 0
    <A_2> = 0
    <Phi> = 0
    <c0> = 0
    <c0i> = 0
    <c1> = 0
    <c1i> = 0
    <Mu_ssd> = 0
    <Sigma_ssd> = 0
    <innerangle> = 0
    <outerangle> = 0
  <EndBdry>
  <BeginBdry>
    <BdryName> = "APs2"
    <BdryType> = 5
    <A_0> = 0
    <A_1> = 0
    <A_2> = 0
    <Phi> = 0
    <c0> = 0
    <c0i> = 0
    <c1> = 0
    <c1i> = 0
    <Mu_ssd> = 0
    <Sigma_ssd> = 0
    <innerangle> = 0
    <outerangle> = 0
  <EndBdry>
  <BeginBdry>
    <BdryName> = "APs3"
    <BdryType> = 5
    <A_0> = 0
    <A_1> = 0
    <A_2> = 0
    <Phi> = 0
    <c0> = 0
    <c0i> = 0
    <c1> = 0
    <c1i> = 0
    <Mu_ssd> = 0
    <Sigma_ssd> = 0
    <innerangle> = 0
    <outerangle> = 0
  <EndBdry>
  <BeginBdry>
    <BdryName> = "AGap"
    <BdryType> = 7
    <A_0> = 0
    <A_1> = 0
    <A_2> = 0
    <Phi> = 0
    <c0> = 0
    <c0i> = 0
    <c1> = 0
    <c1i> = 0
    <Mu_ssd> = 0
    <Sigma_ssd> = 0
    <innerangle> = 5
    <outerangle> = 0
  <EndBdry>
[BlockProps]  = 7
  <BeginBlock>
    <BlockName> = "M600-50A"
    <Mu_x> = 1
    <Mu_y> = 1
    <H_c> = 0
    <H_cAngle> = 0
    <J_re> = 0
    <J_im> = 0
    <Sigma> = 0
    <d_lam> = 0
    <Phi_h> = 0
    <Phi_hx> = 0
    <Phi_hy> = 0
    <LamType> = 0
    <LamFill> = 1
    <NStrands> = 0
    <WireD> = 0
    <BHPoints> = 208
      0	0
      0.0061294119999999999	8.2635015680000006
      0.012398954	15.54584049
      0.018188152999999999	21.42337126
      0.023698273999999998	26.396066560000001
      0.028962854999999999	30.670770340000001
      0.034031080999999998	34.409892589999998
      0.038937833999999998	37.72521158
      0.043710287	40.697869570000002
      0.048369641999999997	43.388214720000001
      0.052932743999999997	45.842257519999997
      0.057413198999999998	48.095830579999998
      0.061822165999999998	50.17736026
      0.066168929000000001	52.109762629999999
      0.070461307000000001	53.911772880000001
      0.074705967999999998	55.598898519999999
      0.078908651999999996	57.184116670000002
      0.083074354000000003	58.67839326
      0.087207454000000004	60.091076020000003
      0.091311829999999997	61.430196219999999
      0.095390935999999996	62.702703470000003
      0.099447875000000005	63.914650479999999
      0.10348545000000001	65.071340269999993
      0.107506212	66.177444339999994
      0.111512495	67.237098649999993
      0.115506446	68.253982050000005
      0.119490053	69.231381029999994
      0.123465163	70.172243330000001
      0.127433505	71.079222909999999
      0.131396704	71.954717669999994
      0.13535628999999999	72.800901379999999
      0.139313718	73.619750830000001
      0.14327037200000001	74.413069070000006
      0.147227575	75.182505329999998
      0.151186599	75.929572239999999
      0.15514867099999999	76.655660710000006
      0.15911497799999999	77.362052919999996
      0.16308667299999999	78.049933670000001
      0.167064883	78.720400249999997
      0.171050709	79.374471249999999
      0.17504523399999999	80.013094219999999
      0.17904952399999999	80.637152520000001
      0.183064634	81.247471390000001
      0.18709161099999999	81.844823349999999
      0.19113149500000001	82.429933079999998
      0.19518532499999999	83.003481679999993
      0.19925414	83.566110629999997
      0.203338983	84.118425299999998
      0.20744090200000001	84.6609981
      0.21156095499999999	85.194371430000004
      0.21570021	85.719060249999998
      0.21985974999999999	86.23555451
      0.224040674	86.744321339999999
      0.228244101	87.245807119999995
      0.232471172	87.740439260000002
      0.23672305199999999	88.228628009999994
      0.241000933	88.710768049999999
      0.245306038	89.187239969999993
      0.249639624	89.658411700000002
      0.25400298399999999	90.124639849999994
      0.258397449	90.586270990000003
      0.26282439699999999	91.043642790000007
      0.267285249	91.497085290000001
      0.27178147899999999	91.946921900000007
      0.27631461499999999	92.393470609999994
      0.28088624499999998	92.837044969999994
      0.28549801899999999	93.277955219999996
      0.29015165799999998	93.716509279999997
      0.294848956	94.153013889999997
      0.299591787	94.587775629999996
      0.30438211199999998	95.021102040000002
      0.30922198299999998	95.45330276
      0.31411355600000002	95.884690719999995
      0.31905909100000002	96.315583349999997
      0.324060968	96.746303900000001
      0.32912169099999999	97.177182860000002
      0.33424390300000001	97.608559369999995
      0.33943039400000002	98.040782919999998
      0.34468411100000002	98.474215020000003
      0.35000818	98.909231149999997
      0.35540591100000002	99.346222819999994
      0.36088082199999999	99.785599880000007
      0.366436651	100.2277931
      0.37207738099999998	100.67325700000001
      0.37780725700000001	101.1224732
      0.38363081700000001	101.57595360000001
      0.389552911	102.03424510000001
      0.39557873700000001	102.4979336
      0.401713873	102.9676498
      0.40796431599999999	103.44407510000001
      0.41433652900000001	103.9279489
      0.420837509	104.4200783
      0.42747497499999998	104.9213567
      0.43425898400000001	105.43288579999999
      0.44146202099999998	105.9749185
      0.44856258700000001	106.5079061
      0.45587690400000003	107.05707719999999
      0.46342101400000002	107.62377619999999
      0.47120716099999999	108.2090887
      0.47924850299999999	108.8142005
      0.48755929799999997	109.4404164
      0.496155022	110.0891769
      0.50505251799999995	110.7620768
      0.51427015700000001	111.4608879
      0.52382802100000003	112.1875854
      0.53374812500000002	112.944379
      0.54405466000000002	113.73375040000001
      0.55477427700000004	114.558498
      0.56593642099999997	115.4217907
      0.57757370900000005	116.3272333
      0.58972237000000005	117.2789456
      0.60242275199999995	118.28165920000001
      0.61571989900000001	119.3408371
      0.62966422099999997	120.4628209
      0.64431222899999996	121.65501310000001
      0.65972736300000001	122.92610569999999
      0.67598086099999999	124.28636400000001
      0.69315263800000004	125.74798269999999
      0.71133206000000004	127.3255305
      0.73061842099999996	129.03650049999999
      0.75112078999999998	130.90198509999999
      0.772956635	132.94748089999999
      0.79624826999999998	135.20380520000001
      0.82111564500000001	137.70804709999999
      0.84766332799999999	140.50436830000001
      0.87595905799999996	143.6442744
      0.90600166900000001	147.18571779999999
      0.93767904199999996	151.19014369999999
      0.97072398500000001	155.71669249999999
      1.0046871660000001	160.81373919999999
      1.0389539999999999	166.5100477
      1.0728218	172.80985770000001
      1.1056189649999999	179.69557180000001
      1.1368151129999999	187.13741469999999
      1.166076154	195.10516089999999
      1.1932571599999999	203.57694960000001
      1.2183581130000001	212.54344710000001
      1.2414717689999999	222.00841339999999
      1.262740478	231.98749659999999
      1.2823264919999999	242.50660869999999
      1.3003940249999999	253.6005657
      1.317099609	265.31223169999998
      1.332587655	277.69219570000001
      1.346989049	290.79894300000001
      1.360421377	304.69948410000001
      1.3729899480000001	319.47042970000001
      1.3847891750000001	335.19953839999999
      1.395904035	351.98780690000001
      1.406411522	369.95222330000001
      1.416382027	389.22936779999998
      1.4258806550000001	409.98013700000001
      1.4349684949999999	432.3959911
      1.443703884	456.70731569999998
      1.452143746	483.19477810000001
      1.460345062	512.205018
      1.468366627	544.17275689999997
      1.476271267	579.65265699999998
      1.484128812	619.36640990000001
      1.4920203320000001	664.27439319999996
      1.5000444559999999	715.68841520000001
      1.5083273020000001	775.45608200000004
      1.517038858	846.27605440000002
      1.52642144	932.26565330000005
      1.5368418420000001	1040.044543
      1.5488919160000001	1180.938134
      1.5635876129999999	1375.704356
      1.5827254589999999	1664.518061
      1.609038255	2120.3213700000001
      1.6429877180000001	2803.4219309999999
      1.6763000130000001	3588.174364
      1.7038913950000001	4346.5592559999996
      1.7268422349999999	5076.0393119999999
      1.746445904	5791.6494789999997
      1.7635818270000001	6506.5344940000004
      1.778835427	7231.1495919999998
      1.792609184	7974.1327339999998
      1.805191346	8743.1111569999994
      1.8167966790000001	9545.295204
      1.8275911469999999	10387.927960000001
      1.837707435	11278.663500000001
      1.8472551399999999	12225.930109999999
      1.8563277979999999	13239.325269999999
      1.865008022	14330.08987
      1.873371527	15511.71947
      1.8814906259999999	16800.793989999998
      1.88943763	18218.15107
      1.8972886259999999	19790.607090000001
      1.905128269	21553.57647
      1.913056538	23555.22162
      1.921199232	25863.341659999998
      1.92972568	28577.465530000001
      1.938881257	31851.611560000001
      1.949053186	35941.14198
      1.960921235	41311.621829999996
      1.975868577	48939.738250000002
      1.9972472800000001	61282.289870000001
      2.0280781640000001	81252.957920000001
      2.0737002590000002	113566.1776
      2.1433819129999998	165850.06529999999
      2.250195926	248560.18210000001
      2.3541325240000002	331270.29889999999
      2.4580691219999999	413980.41570000001
      2.5620057200000002	496690.53249999997
      2.665942319	579400.64930000005
      2.7698789170000002	662110.76610000001
      2.873815515	744820.88289999997
      2.9777521130000002	827530.99970000004
      3.081688711	910241.1165
  <EndBlock>
  <BeginBlock>
    <BlockName> = "ShaftAir"
    <Mu_x> = 1
    <Mu_y> = 1
    <H_c> = 0
    <H_cAngle> = 0
    <J_re> = 0
    <J_im> = 0
    <Sigma> = 0
    <d_lam> = 0
    <Phi_h> = 0
    <Phi_hx> = 0
    <Phi_hy> = 0
    <LamType> = 0
    <LamFill> = 1
    <NStrands> = 0
    <WireD> = 0
    <BHPoints> = 3
      -100	-7.9577471545947675e-011
      0	0
      100	7.9577471545947675e-011
  <EndBlock>
  <BeginBlock>
    <BlockName> = "Copper"
    <Mu_x> = 1
    <Mu_y> = 1
    <H_c> = 0
    <H_cAngle> = 0
    <J_re> = 0
    <J_im> = 0
    <Sigma> = 58
    <d_lam> = 0
    <Phi_h> = 0
    <Phi_hx> = 0
    <Phi_hy> = 0
    <LamType> = 0
    <LamFill> = 1
    <NStrands> = 0
    <WireD> = 0
    <BHPoints> = 0
  <EndBlock>
  <BeginBlock>
    <BlockName> = "Aluminium"
    <Mu_x> = 1
    <Mu_y> = 1
    <H_c> = 0
    <H_cAngle> = 0
    <J_re> = 0
    <J_im> = 0
    <Sigma> = 29
    <d_lam> = 0
    <Phi_h> = 0
    <Phi_hx> = 0
    <Phi_hy> = 0
    <LamType> = 0
    <LamFill> = 1
    <NStrands> = 0
    <WireD> = 0
    <BHPoints> = 0
  <EndBlock>
  <BeginBlock>
    <BlockName> = "Air"
    <Mu_x> = 1
    <Mu_y> = 1
    <H_c> = 0
    <H_cAngle> = 0
    <J_re> = 0
    <J_im> = 0
    <Sigma> = 0
    <d_lam> = 0
    <Phi_h> = 0
    <Phi_hx> = 0
    <Phi_hy> = 0
    <LamType> = 0
    <LamFill> = 1
    <NStrands> = 0
    <WireD> = 0
    <BHPoints> = 0
  <EndBlock>
  <BeginBlock>
    <BlockName> = "DW235"
    <Mu_x> = 1
    <Mu_y> = 1
    <H_c> = 0
    <H_cAngle> = 0
    <J_re> = 0
    <J_im> = 0
    <Sigma> = 0
    <d_lam> = 0
    <Phi_h> = 0
    <Phi_hx> = 0
    <Phi_hy> = 0
    <LamType> = 0
    <LamFill> = 1
    <NStrands> = 0
    <WireD> = 0
    <BHPoints> = 0
  <EndBlock>
  <BeginBlock>
    <BlockName> = "Air"
    <Mu_x> = 1
    <Mu_y> = 1
    <H_c> = 0
    <H_cAngle> = 0
    <J_re> = 0
    <J_im> = 0
    <Sigma> = 0
    <d_lam> = 0
    <Phi_h> = 0
    <Phi_hx> = 0
    <Phi_hy> = 0
    <LamType> = 0
    <LamFill> = 1
    <NStrands> = 0
    <WireD> = 0
    <BHPoints> = 0
  <EndBlock>
[CircuitProps]  = 6
  <BeginCircuit>
    <CircuitName> = "fase1"
    <TotalAmps_re> = 1640.956098677485
    <TotalAmps_im> = 0
    <CircuitType> = 1
  <EndCircuit>
  <BeginCircuit>
    <CircuitName> = "fase2"
    <TotalAmps_re> = -1131.4443678359426
    <TotalAmps_im> = -0
    <CircuitType> = 1
  <EndCircuit>
  <BeginCircuit>
    <CircuitName> = "fase3"
    <TotalAmps_re> = -509.51173084154169
    <TotalAmps_im> = -0
    <CircuitType> = 1
  <EndCircuit>
  <BeginCircuit>
    <CircuitName> = "fase1n"
    <TotalAmps_re> = -1640.956098677485
    <TotalAmps_im> = -0
    <CircuitType> = 1
  <EndCircuit>
  <BeginCircuit>
    <CircuitName> = "fase2n"
    <TotalAmps_re> = 1131.4443678359426
    <TotalAmps_im> = 0
    <CircuitType> = 1
  <EndCircuit>
  <BeginCircuit>
    <CircuitName> = "fase3n"
    <TotalAmps_re> = 509.51173084154169
    <TotalAmps_im> = 0
    <CircuitType> = 1
  <EndCircuit>
[NumPoints] = 131
1169.322582372946	185.20250276798055	0	2
1150.8027440136461	182.26924853454193	0	2
1188.5627461011279	240.16770694201688	0	2
1195.0596446967882	260.5971883900105	0	2
1188.4947463645483	263.41943202170228	0	2
1137.1609008077216	180.10859283337652	0	2
1105.4634851543044	175.08821539537584	0	2
1170.4634810126772	267.55017503350064	0	2
1183.6933030325313	308.13732869538569	0	2
1179.3070906273858	310.26256552741478	0	2
1086.7461218679912	172.12367628692206	0	2
1051.1310481001067	166.4828027610786	0	2
1156.932332415478	320.10287989174651	0	2
1170.5566266297017	354.78956133584995	0	2
1157.5566149277388	360.79072201076929	0	2
1204.606247650285	138.8730247353343	0	2
1217.0982223490944	121.45108535647876	0	2
1211.7267542558618	116.73830700898	0	2
1195.8544716359588	107.23776952665615	0	2
1220.9789003121959	72.725332395338469	0	2
1217.4640987205964	69.348697883438604	0	2
1199.2252634912033	53.075822252338128	0	2
1222.9015113282614	24.296966284828841	0	2
1212.3922261217208	14.572298776632806	0	2
1230	0	0	20
428.56999999999999	0	0	2
1169.7995150430388	380.09090308118527	0	20
407.59429118861397	132.43541327927122	0	2
0	0	0	2
1500	0	0	1
1235.5714285714287	0	0	20
1426.5847744427303	463.52549156242111	0	1
1175.0982584909691	381.81256919270288	0	20
1245.1381012957397	42.312470681630437	0	1
1245.3921238560113	32.611740478176642	0	1
1250.295995362668	54.174814910889289	0	1
1432.6181234070198	63.729912755852055	0	1
1449.9534966856374	47.852253264199582	0	1
1450.3028470745387	37.97751660506237	0	1
1450.4707792439069	28.098029342657235	0	1
1433.99013598428	11.334866294151976	0	1
1251.417798897174	11.334866294151972	0	1
1245.6461464162828	22.911010274722848	0	1
1348.3524994991249	11.334866294151972	0	1
1347.0978503263682	59.247985160015851	0	1
1234.8559116674198	42.043222070463742	0	1
1235.3639567879629	22.641761663556153	0	1
1241.2172191880331	107.41997609694914	0	1
1241.978590610667	97.74583492069354	0	1
1245.747217411882	119.53600671390501	0	1
1427.319404133566	138.62001254480421	0	1
1445.4619923779842	123.67137617102858	0	1
1446.3276677800222	113.82845608195746	0	1
1447.0124222172567	103.97129720415592	0	1
1431.4316812742391	86.368577263520635	0	1
1249.1095532298873	76.813479418557861	0	1
1242.7399620333008	88.071693744437923	0	1
1345.9114081935872	81.886649667684424	0	1
1342.1508995814904	129.66844200513702	0	1
1230.9632123267784	106.61296825517702	0	1
1232.4859551720458	87.264685902665803	0	1
1233.8942469584838	172.23305082445708	0	1
1235.1608803773322	162.61201482392246	0	1
1237.7839329289977	184.56955863136386	0	1
1418.1085015851372	213.13016451472998	0	1
1437.0085772220543	199.15152443206475	0	1
1438.3882048811242	189.36739967285084	0	1
1439.5879047219094	179.55958696697425	0	1
1424.949771823422	161.16555796601617	0	1
1243.3775851017381	142.08155213511697	0	1
1236.4275137961811	152.99097882338785	0	1
1339.7812672713465	152.21398742634898	0	1
1333.5252065126249	199.73348666386499	0	1
1223.6965283843531	170.89049570447943	0	1
1226.2297952220506	151.6484237034102	0	1
1223.1892563649583	236.57404673142781	0	1
1224.9576800258637	227.03248649754164	0	1
1226.4279687232611	249.0972182178869	0	1
1405.0106622053772	287.05614151821703	0	1
1424.6164214412001	274.08581220748539	0	1
1426.5062198937856	264.38730038400757	0	1
1428.2175768442476	254.65571638295	0	1
1414.5621740950812	235.52079507660747	0	1
1234.2376054389415	206.96018919324135	0	1
1226.726103686769	217.49092626365544	0	1
1329.9788790225689	222.12411722574248	0	1
1321.2444135449093	269.25107571895182	0	1
1213.0757773157293	234.69962418350863	0	1
1216.6126246375397	215.61650371573626	0	1
1209.1315890425794	300.26660962036806	0	1
1211.3969558192084	290.83067790650563	0	1
1211.710450703217	312.94211964381003	0	1
1388.0617862616059	360.19531759083031	0	1
1408.319491073049	348.26884982311651	0	1
1410.7142805129495	338.6825338821476	0	1
1412.9326038626421	329.05385218122183	0	1
1400.2973597725568	309.23048605874351	0	1
1221.7146662904404	271.27156275841338	0	1
1213.6623225958372	281.39474619264325	0	1
1316.5311111120884	291.42542025947824	0	1
1305.3421814782398	338.03066629090574	0	1
1199.1300698613463	297.86545730642155	0	1
1203.6608034146041	278.99359387869686	0	1
1191.759776080341	363.13616260361499	0	1
1194.5158767598225	353.83172264272054	0	1
1193.671718562756	375.92926847212954	0	1
1367.3083294446835	432.34722333479669	0	1
1388.1624548709542	421.49730672925341	0	1
1391.0556713467747	412.04946209645095	0	1
1393.7748808255903	402.55007424291779	0	1
1382.1944277203718	382.09259777294005	0	1
1205.8430921619827	334.83939982591977	0	1
1197.271977439304	344.52728268182602	0	1
1299.4748229370057	359.92794647301542	0	1
1285.8620972253614	405.88373830277982	0	1
1181.8976302359827	360.21486191523178	0	1
1187.4098315949454	341.60598199344287	0	1
1497.9443021318607	78.503934364415741	0	1
1233.8781208703299	64.664812220745887	0	1
1491.78284305241	156.79269490148019	0	1
1228.8028390057423	129.15238268599069	0	1
1481.5325108927066	234.65169756034629	0	1
1220.3594939724783	193.28595544756527	0	1
1467.2214011007086	311.867536226639	0	1
1208.5712283923838	256.88974484040011	0	1
1448.8887394336025	388.22856765378111	0	1
1193.4703530820218	319.78941729881456	0	1
1233.7142857142858	0	0	20
1173.3320106749923	381.23868048886368	0	20
1231.8571428571429	0	0	20
1171.5657628590156	380.66479178502448	0	20
[NumSegments] = 96
0	1	8.5714285714285712	0	0	2
5	6	8.5714285714285712	0	0	2
10	11	8.5714285714285712	0	0	2
24	25	-1	4	0	2
27	26	-1	4	0	2
25	28	-1	2	0	2
28	27	-1	2	0	2
29	30	-1	10	0	1
32	31	-1	10	0	1
33	34	8.5714285714285712	0	0	1
35	33	8.5714285714285712	0	0	1
36	44	8.5714285714285712	0	0	1
38	37	8.5714285714285712	0	0	1
39	38	8.5714285714285712	0	0	1
41	43	8.5714285714285712	0	0	1
42	41	8.5714285714285712	0	0	1
34	42	8.5714285714285712	0	0	1
43	40	8.5714285714285712	0	0	1
44	35	8.5714285714285712	0	0	1
43	44	8.5714285714285712	0	0	1
33	45	8.5714285714285712	0	0	1
46	42	8.5714285714285712	0	0	1
47	48	8.5714285714285712	0	0	1
49	47	8.5714285714285712	0	0	1
50	58	8.5714285714285712	0	0	1
52	51	8.5714285714285712	0	0	1
53	52	8.5714285714285712	0	0	1
55	57	8.5714285714285712	0	0	1
56	55	8.5714285714285712	0	0	1
48	56	8.5714285714285712	0	0	1
57	54	8.5714285714285712	0	0	1
58	49	8.5714285714285712	0	0	1
57	58	8.5714285714285712	0	0	1
47	59	8.5714285714285712	0	0	1
60	56	8.5714285714285712	0	0	1
61	62	8.5714285714285712	0	0	1
63	61	8.5714285714285712	0	0	1
64	72	8.5714285714285712	0	0	1
66	65	8.5714285714285712	0	0	1
67	66	8.5714285714285712	0	0	1
69	71	8.5714285714285712	0	0	1
70	69	8.5714285714285712	0	0	1
62	70	8.5714285714285712	0	0	1
71	68	8.5714285714285712	0	0	1
72	63	8.5714285714285712	0	0	1
71	72	8.5714285714285712	0	0	1
61	73	8.5714285714285712	0	0	1
74	70	8.5714285714285712	0	0	1
75	76	8.5714285714285712	0	0	1
77	75	8.5714285714285712	0	0	1
78	86	8.5714285714285712	0	0	1
80	79	8.5714285714285712	0	0	1
81	80	8.5714285714285712	0	0	1
83	85	8.5714285714285712	0	0	1
84	83	8.5714285714285712	0	0	1
76	84	8.5714285714285712	0	0	1
85	82	8.5714285714285712	0	0	1
86	77	8.5714285714285712	0	0	1
85	86	8.5714285714285712	0	0	1
75	87	8.5714285714285712	0	0	1
88	84	8.5714285714285712	0	0	1
89	90	8.5714285714285712	0	0	1
91	89	8.5714285714285712	0	0	1
92	100	8.5714285714285712	0	0	1
94	93	8.5714285714285712	0	0	1
95	94	8.5714285714285712	0	0	1
97	99	8.5714285714285712	0	0	1
98	97	8.5714285714285712	0	0	1
90	98	8.5714285714285712	0	0	1
99	96	8.5714285714285712	0	0	1
100	91	8.5714285714285712	0	0	1
99	100	8.5714285714285712	0	0	1
89	101	8.5714285714285712	0	0	1
102	98	8.5714285714285712	0	0	1
103	104	8.5714285714285712	0	0	1
105	103	8.5714285714285712	0	0	1
106	114	8.5714285714285712	0	0	1
108	107	8.5714285714285712	0	0	1
109	108	8.5714285714285712	0	0	1
111	113	8.5714285714285712	0	0	1
112	111	8.5714285714285712	0	0	1
104	112	8.5714285714285712	0	0	1
113	110	8.5714285714285712	0	0	1
114	105	8.5714285714285712	0	0	1
113	114	8.5714285714285712	0	0	1
103	115	8.5714285714285712	0	0	1
116	112	8.5714285714285712	0	0	1
117	118	8.5714285714285712	0	0	1
119	120	8.5714285714285712	0	0	1
121	122	8.5714285714285712	0	0	1
123	124	8.5714285714285712	0	0	1
125	126	8.5714285714285712	0	0	1
127	30	0.8571428571428571	7	0	20
128	32	0.8571428571428571	7	0	20
129	24	0.8571428571428571	5	0	20
130	26	0.8571428571428571	5	0	20
[NumArcSegments] = 64
2	0	56.584442637252153	1.9985208761169155	0	0	2	1.9985208761169155
2	3	59.885909382890802	5.7172688370578921	0	0	2	5.7172688370578921
3	4	108.8714190009907	10	0	0	2	10
4	1	67.827114253370723	1.5311778713320914	0	0	2	1.5311778713320914
7	5	59.699189730682974	1.3061855068776687	0	0	2	1.3061855068776687
7	8	65.290500690242354	3.1029188122992073	0	0	2	3.1029188122992073
8	9	99.114527750225122	10	0	0	2	10
9	6	75.294161290217914	0.97373116621083122	0	0	2	0.97373116621083122
12	10	68.749765055523085	0.84650473284071404	0	0	2	0.84650473284071404
12	13	76.611545440090183	4.0843247260576083	0	0	2	4.0843247260576083
13	14	96.717763260586736	10	0	0	2	10
14	11	75.420456354846351	0.67795491922152062	0	0	2	0.67795491922152062
0	15	56.584442637252153	1.9985208761169027	0	0	2	1.9985208761169027
16	15	59.885909382891526	5.7172688370559621	0	0	2	5.7172688370559621
17	16	108.87141900099017	10	0	0	2	10
1	17	67.827114253370809	1.5311778713321293	0	0	2	1.5311778713321293
5	18	59.699189730682917	1.3061855068776558	0	0	2	1.3061855068776558
19	18	65.290500690242652	3.1029188122991047	0	0	2	3.1029188122991047
20	19	99.114527750224113	10	0	0	2	10
6	20	75.2941612902179	0.97373116621082656	0	0	2	0.97373116621082656
10	21	68.749765055523085	0.84650473284070538	0	0	2	0.84650473284070538
22	21	76.611545440089927	4.0843247260568312	0	0	2	4.0843247260568312
23	22	96.717763260588313	10	0	0	2	10
11	23	75.420456354846323	0.67795491922152529	0	0	2	0.67795491922152529
24	26	18	0.099818431207460492	0	0	2	0.099818431207460492
25	27	18	0.28647985249825325	0	0	2	0.28647985249825325
29	117	3	8.5714285714285712	1	0	1	0.25
30	46	1.05	0.099368330754565234	0	0	1	0.099368330754565234
37	36	90.973823617069314	7.4486738838465518	0	0	1	7.4486738838465518
40	39	90.973823617068959	7.4486738838467002	0	0	1	7.4486738838467002
45	118	1.05	0.099368330754565234	0	0	1	0.099368330754565234
46	45	0.90000000000000024	0.099368330754565234	0	0	1	0.099368330754565234
51	50	90.973823617069073	7.448673883846566	0	0	1	7.448673883846566
54	53	90.973823617069456	7.4486738838467055	0	0	1	7.4486738838467055
59	120	1.0499999999999992	0.099368330754565234	0	0	1	0.099368330754565234
60	59	0.90000000000000024	0.099368330754565234	0	0	1	0.099368330754565234
65	64	90.973823617069471	7.4486738838464479	0	0	1	7.4486738838464479
68	67	90.973823617068888	7.4486738838466948	0	0	1	7.4486738838466948
73	122	1.0499999999999987	0.099368330754565234	0	0	1	0.099368330754565234
74	73	0.89999999999999947	0.099368330754565234	0	0	1	0.099368330754565234
79	78	90.973823617070067	7.4486738838465865	0	0	1	7.4486738838465865
82	81	90.973823617068675	7.4486738838466913	0	0	1	7.4486738838466913
87	124	1.0499999999999989	0.099368330754565234	0	0	1	0.099368330754565234
88	87	0.89999999999999891	0.099368330754565234	0	0	1	0.099368330754565234
93	92	90.973823617069598	7.4486738838465074	0	0	1	7.4486738838465074
96	95	90.973823617069741	7.4486738838467348	0	0	1	7.4486738838467348
101	126	1.0500000000000038	0.099368330754565234	0	0	1	0.099368330754565234
102	101	0.89999999999999392	0.099368330754565234	0	0	1	0.099368330754565234
107	106	90.973823617069655	7.4486738838465847	0	0	1	7.4486738838465847
110	109	90.973823617069229	7.4486738838467135	0	0	1	7.4486738838467135
115	32	1.0500000000000038	0.099368330754565234	0	0	1	0.099368330754565234
116	115	0.90000000000000024	0.099368330754565234	0	0	1	0.099368330754565234
117	119	3	8.5714285714285712	1	0	1	0.5
118	60	1.0499999999999994	0.099368330754565234	0	0	1	0.099368330754565234
119	121	3.0000000000000013	8.5714285714285712	1	0	1	0.42999999999999999
120	74	1.0499999999999965	0.099368330754565234	0	0	1	0.099368330754565234
121	123	3.0000000000000004	8.5714285714285712	1	0	1	0.5
122	88	1.0500000000000009	0.099368330754565234	0	0	1	0.099368330754565234
123	125	2.9999999999999987	8.5714285714285712	1	0	1	0.5
124	102	1.0499999999999974	0.099368330754565234	0	0	1	0.099368330754565234
125	31	3.0000000000000004	8.5714285714285712	1	0	1	0.25
126	116	1.0500000000000023	0.099368330754565234	0	0	1	0.099368330754565234
127	128	18	0.8571428571428571	11	0	20	0.055
129	130	18	0.8571428571428571	11	0	20	0.055
[NumHoles] = 0
[NumBlockLabels] = 34
1190.7057123874881	254.7281091179099	7	8.5714285714285712	0	0	2	1	0
1177.8212915575314	295.31668975210033	7	8.5714285714285712	0	0	2	1	0
1161.681857990973	345.22772107945525	7	8.5714285714285712	0	0	2	1	0
1211.1437414184136	125.68747236693102	7	8.5714285714285712	0	0	2	1	0
1211.4324902229168	83.103933268477746	7	8.5714285714285712	0	0	2	1	0
1211.5063336470619	30.648362437933258	7	8.5714285714285712	0	0	2	1	0
737.21232011448251	116.76296072168519	1	8.5714285714285712	0	0	22	1	0
211.64679606442908	33.521559341145874	7	8.5714285714285712	0	0	2	1	0
1296.5586493843789	33.951583102630281	3	8.5714285714285712	1	0	1	1	0
1398.8917004411142	36.63126835153755	3	8.5714285714285712	1	0	1	1	0
1240.2700764789768	32.477614947287954	7	8.5714285714285712	0	0	10	1	0
1474.8944172689373	38.621469533436048	1	8.5714285714285712	0	0	12	1	0
1293.0048722491028	101.76169037855212	3	8.5714285714285712	1	0	1	1	0
1395.0574355259751	109.79340129426932	3	8.5714285714285712	1	0	1	1	0
1236.8705824094639	97.343825956784684	7	8.5714285714285712	0	0	10	1	0
1470.8518341898571	115.75854983686241	1	8.5714285714285712	0	0	12	1	0
1285.9070586346591	169.29287593451474	3	8.5714285714285712	3	0	1	-1	0
1387.3994151493123	182.65459815569926	3	8.5714285714285712	3	0	1	-1	0
1230.0809120473866	161.94322430562025	7	8.5714285714285712	0	0	10	1	0
1462.77774847092	192.5783440014641	1	8.5714285714285712	0	0	12	1	0
1275.2846631548014	236.36004148494439	3	8.5714285714285712	3	0	1	-1	0
1375.9386294126766	255.01515145974992	3	8.5714285714285712	3	0	1	-1	0
1219.9196754072636	226.09874753316961	7	8.5714285714285712	0	0	10	1	0
1450.6942906198587	268.87029431111438	1	8.5714285714285712	0	0	12	1	0
1261.1668010571861	302.77936059084885	3	8.5714285714285712	2	0	1	1	0
1360.7064915331421	326.67672595953513	3	8.5714285714285712	2	0	1	1	0
1206.414723732426	289.63454980966179	7	8.5714285714285712	0	0	10	1	0
1434.6345805547321	344.42528983300286	1	8.5714285714285712	0	0	12	1	0
1243.592168420503	368.36878251530902	3	8.5714285714285712	2	0	1	1	0
1341.7447517418639	397.44290226048616	3	8.5714285714285712	2	0	1	1	0
1189.6030731566971	352.37648391737645	7	8.5714285714285712	0	0	10	1	0
1414.6426368245322	419.03623957616742	1	8.5714285714285712	0	0	12	1	0
1219.4423547990682	193.14069487288504	7	0.8571428571428571	0	0	20	1	0
1215.773798105429	192.55965257416418	7	0.8571428571428571	0	0	20	1	0
