[Format]      =  4.0
[Frequency]   =  0
[Precision]   =  1e-008
[MinAngle]    =  15
[DoSmartMesh] =  1
[Depth]       =  300
[LengthUnits] =  millimeters
[ProblemType] =  planar
[Coordinates] =  cartesian
[ACSolver]    =  0
[PrevType]    =  0
[PrevSoln]    =  ""
[Comment]     =  "Add comments here."
[PointProps]   = 0
[BdryProps]   = 11
  <BeginBdry>
    <BdryName> = "A=0"
    <BdryType> = 0
    <A_0> = 0
    <A_1> = 0
    <A_2> = 0
    <Phi> = 0
    <c0> = 0
    <c0i> = 0
    <c1> = 0
    <c1i> = 0
    <Mu_ssd> = 0
    <Sigma_ssd> = 0
    <innerangle> = 0
    <outerangle> = 0
  <EndBdry>
  <BeginBdry>
    <BdryName> = "APr1"
    <BdryType> = 5
    <A_0> = 0
    <A_1> = 0
    <A_2> = 0
    <Phi> = 0
    <c0> = 0
    <c0i> = 0
    <c1> = 0
    <c1i> = 0
    <Mu_ssd> = 0
    <Sigma_ssd> = 0
    <innerangle> = 0
    <outerangle> = 0
  <EndBdry>
  <BeginBdry>
    <BdryName> = "APr2"
    <BdryType> = 5
    <A_0> = 0
    <A_1> = 0
    <A_2> = 0
    <Phi> = 0
    <c0> = 0
    <c0i> = 0
    <c1> = 0
    <c1i> = 0
    <Mu_ssd> = 0
    <Sigma_ssd> = 0
    <innerangle> = 0
    <outerangle> = 0
  <EndBdry>
  <BeginBdry>
    <BdryName> = "APr3"
    <BdryType> = 5
    <A_0> = 0
    <A_1> = 0
    <A_2> = 0
    <Phi> = 0
    <c0> = 0
    <c0i> = 0
    <c1> = 0
    <c1i> = 0
    <Mu_ssd> = 0
    <Sigma_ssd> = 0
    <innerangle> = 0
    <outerangle> = 0
  <EndBdry>
  <BeginBdry>
    <BdryName> = "APg1"
    <BdryType> = 5
    <A_0> = 0
    <A_1> = 0
    <A_2> = 0
    <Phi> = 0
    <c0> = 0
    <c0i> = 0
    <c1> = 0
    <c1i> = 0
    <Mu_ssd> = 0
    <Sigma_ssd> = 0
    <innerangle> = 0
    <outerangle> = 0
  <EndBdry>
  <BeginBdry>
    <BdryName> = "APg2"
    <BdryType> = 5
    <A_0> = 0
    <A_1> = 0
    <A_2> = 0
    <Phi> = 0
    <c0> = 0
    <c0i> = 0
    <c1> = 0
    <c1i> = 0
    <Mu_ssd> = 0
    <Sigma_ssd> = 0
    <innerangle> = 0
    <outerangle> = 0
  <EndBdry>
  <BeginBdry>
    <BdryName> = "APg3"
    <BdryType> = 5
    <A_0> = 0
    <A_1> = 0
    <A_2> = 0
    <Phi> = 0
    <c0> = 0
    <c0i> = 0
    <c1> = 0
    <c1i> = 0
    <Mu_ssd> = 0
    <Sigma_ssd> = 0
    <innerangle> = 0
    <outerangle> = 0
  <EndBdry>
  <BeginBdry>
    <BdryName> = "APs1"
    <BdryType> = 5
    <A_0> = 0
    <A_1> = 0
    <A_2> = 0
    <Phi> = 0
    <c0> = 0
    <c0i> = 0
    <c1> = 0
    <c1i> = 0
    <Mu_ssd> = 0
    <Sigma_ssd> = 0
    <innerangle> = 0
    <outerangle> = 0
  <EndBdry>
  <BeginBdry>
    <BdryName> = "APs2"
    <BdryType> = 5
    <A_0> = 0
    <A_1> = 0
    <A_2> = 0
    <Phi> = 0
    <c0> = 0
    <c0i> = 0
    <c1> = 0
    <c1i> = 0
    <Mu_ssd> = 0
    <Sigma_ssd> = 0
    <innerangle> = 0
    <outerangle> = 0
  <EndBdry>
  <BeginBdry>
    <BdryName> = "APs3"
    <BdryType> = 5
    <A_0> = 0
    <A_1> = 0
    <A_2> = 0
    <Phi> = 0
    <c0> = 0
    <c0i> = 0
    <c1> = 0
    <c1i> = 0
    <Mu_ssd> = 0
    <Sigma_ssd> = 0
    <innerangle> = 0
    <outerangle> = 0
  <EndBdry>
  <BeginBdry>
    <BdryName> = "AGap"
    <BdryType> = 7
    <A_0> = 0
    <A_1> = 0
    <A_2> = 0
    <Phi> = 0
    <c0> = 0
    <c0i> = 0
    <c1> = 0
    <c1i> = 0
    <Mu_ssd> = 0
    <Sigma_ssd> = 0
    <innerangle> = 0
    <outerangle> = 0
  <EndBdry>
[BlockProps]  = 11
  <BeginBlock>
    <BlockName> = "M270-35A"
    <Mu_x> = 1
    <Mu_y> = 1
    <H_c> = 0
    <H_cAngle> = 0
    <J_re> = 0
    <J_im> = 0
    <Sigma> = 0
    <d_lam> = 0
    <Phi_h> = 0
    <Phi_hx> = 0
    <Phi_hy> = 0
    <LamType> = 0
    <LamFill> = 1
    <NStrands> = 0
    <WireD> = 0
    <BHPoints> = 200
      0	0
      0.0045422769999999999	3.2767874890000002
      0.0090353559999999996	6.114592773
      0.013222249	8.4602422570000009
      0.017196487	10.462328400000001
      0.020991169	12.199266809999999
      0.024640190999999999	13.72982376
      0.028168996000000002	15.09561901
      0.031597466999999997	16.327217480000002
      0.034941272000000002	17.447599879999999
      0.038212956999999999	18.47443998
      0.041422729999999998	19.421601849999998
      0.044579012000000001	20.300151339999999
      0.047688851999999997	21.119056130000001
      0.050758219	21.885681389999998
      0.053792226999999998	22.60614816
      0.056795300999999999	23.285597330000002
      0.059771310000000001	23.928387470000001
      0.062723663999999998	24.538245379999999
      0.065655396000000005	25.11838217
      0.068569221	25.67158405
      0.071467592999999996	26.200284
      0.074352739000000001	26.70661905
      0.077226698999999996	27.19247648
      0.080091349000000006	27.65953137
      0.082948429000000004	28.109277410000001
      0.085799557999999998	28.54305239
      0.088646256000000007	28.96205934
      0.091489953999999998	29.36738437
      0.094332005999999996	29.760011540000001
      0.097173704999999999	30.140835630000002
      0.100016285	30.510672870000001
      0.102860934	30.870270300000001
      0.105708802	31.220313650000001
      0.108561001	31.561434299999998
      0.11141862	31.894215259999999
      0.114282722	32.21919639
      0.117154355	32.536878999999999
      0.120034552	32.847729870000002
      0.12292433699999999	33.152184810000001
      0.12582473199999999	33.45065185
      0.12873675200000001	33.743513989999997
      0.13166142	34.031131799999997
      0.13459976100000001	34.313845620000002
      0.137552811	34.591977620000002
      0.14052161499999999	34.865833639999998
      0.14350723800000001	35.135704879999999
      0.14651076099999999	35.401869419999997
      0.14953328699999999	35.664593680000003
      0.15257594699999999	35.924133650000002
      0.155639899	36.180736189999998
      0.158726334	36.434640119999997
      0.161836481	36.686077320000003
      0.16497160599999999	36.93527375
      0.16813302299999999	37.182450420000002
      0.17132209400000001	37.427824389999998
      0.17454023399999999	37.671609650000001
      0.17778891699999999	37.914018050000003
      0.18106968000000001	38.155260249999998
      0.18438413100000001	38.395546590000002
      0.18773395400000001	38.635088090000004
      0.191120915	38.87409736
      0.19454686800000001	39.112789630000002
      0.19801376800000001	39.351383830000003
      0.20152367299999999	39.590103640000002
      0.20507876	39.829178749999997
      0.208681327	40.068846100000002
      0.21233381500000001	40.309351300000003
      0.216038808	40.550950149999998
      0.21979905799999999	40.793910310000001
      0.22361749	41.038513199999997
      0.227497227	41.285056060000002
      0.2314416	41.53385428
      0.23545417299999999	41.785244059999997
      0.23953876299999999	42.039585369999998
      0.24369946200000001	42.297265359999997
      0.247940667	42.558702250000003
      0.25226710400000002	42.824349750000003
      0.25668386300000001	43.0947022
      0.26119642799999998	43.370300520000001
      0.26581071499999998	43.651739030000002
      0.27054201700000002	43.94020278
      0.275438138	44.23873004
      0.28051031599999998	44.548036490000001
      0.28576849199999999	44.868763260000001
      0.29122336399999998	45.201605100000002
      0.296886504	45.547319020000003
      0.30277045699999999	45.906731970000003
      0.30888884599999999	46.280749559999997
      0.31525650100000002	46.670366299999998
      0.321889598	47.076677459999999
      0.328805825	47.50089294
      0.33602457000000002	47.944353649999996
      0.34356714500000002	48.408550759999997
      0.351457032	48.895148689999999
      0.35972019	49.406012390000001
      0.36838539799999998	49.943240269999997
      0.37748466600000002	50.509203810000002
      0.38705371900000002	51.106595769999998
      0.39713256899999999	51.738489119999997
      0.40776619800000002	52.408409570000003
      0.41900536300000002	53.120425429999997
      0.43090757000000002	53.879259759999997
      0.44353822799999998	54.690431349999997
      0.45697202599999998	55.560433060000001
      0.47129457299999999	56.49695913
      0.486604327	57.509196449999997
      0.503014823	58.60819978
      0.520657166	59.807376320000003
      0.53968265500000001	61.123111049999999
      0.56026517099999995	62.575567960000001
      0.58260257699999995	64.189698669999999
      0.60691558199999995	65.996464399999994
      0.63344113800000001	68.034201780000004
      0.662415215	70.349880479999996
      0.69403682899999997	72.999622560000006
      0.72840307800000004	76.047204840000006
      0.76540934699999996	79.558509650000005
      0.80463064699999998	83.589963030000007
      0.84524547999999999	88.171938179999998
      0.88609953900000005	93.294734669999997
      0.92594964300000004	98.90894376
      0.963771241	104.9435902
      0.99893980100000002	111.3300564
      1.0312218310000001	118.0174305
      1.0606584889999999	124.9760964
      1.0874410889999999	132.19454709999999
      1.1118223309999999	139.6744898
      1.1340651580000001	147.42664859999999
      1.1544176930000001	155.46782519999999
      1.173103241	163.8190534
      1.1903180360000001	172.50453999999999
      1.2062325739999999	181.55112829999999
      1.220994358	190.98810510000001
      1.234730984	200.84723579999999
      1.2475531	211.16296399999999
      1.2595570490000001	221.97273730000001
      1.270827143	233.31744900000001
      1.281437594	245.2419931
      1.291454146	257.79594609999998
      1.3009354369999999	271.03439809999998
      1.309934159	285.01896390000002
      1.318498043	299.81902289999999
      1.326670706	315.51324579999999
      1.3344924010000001	332.19149570000002
      1.3420006879999999	349.95721329999998
      1.3492310569999999	368.93044570000001
      1.356217531	389.25173360000002
      1.362993272	411.08716509999999
      1.3695912379999999	434.63503709999998
      1.3760449050000001	460.1347695
      1.382389146	487.87903890000001
      1.3886613240000001	518.23060969999995
      1.394902732	551.64618570000005
      1.401160583	588.71104339999999
      1.4074908660000001	630.19074279999995
      1.4139626249999999	677.11087850000001
      1.420664664	730.8848299
      1.4277165590000001	793.52783980000004
      1.435287779	868.03580320000003
      1.4436331710000001	959.10175079999999
      1.453164339	1074.5891859999999
      1.464608755	1228.9034079999999
      1.479413587	1451.8548430000001
      1.5007295060000001	1812.597843
      1.531321148	2396.2922779999999
      1.5749716949999999	3340.7297119999998
      1.6351726849999999	4868.8615820000005
      1.6746062129999999	6056.7860730000002
      1.7053540309999999	7126.7301200000002
      1.7307497590000001	8135.9466300000004
      1.752580204	9119.3875740000003
      1.771845345	10098.25848
      1.789165838	11087.22133
      1.804957089	12097.58993
      1.819514077	13138.977849999999
      1.8330565510000001	14220.25051
      1.845754994	15350.15127
      1.8577465099999999	16537.778849999999
      1.869145125	17793.012470000001
      1.8800488470000001	19126.948680000001
      1.8905448170000001	20552.403480000001
      1.9007133519999999	22084.53774
      1.9106314310000001	23741.68173
      1.920376064	25546.46932
      1.930027954	27527.455720000002
      1.9396760099999999	29721.505959999999
      1.9494234969999999	32177.45292
      1.959397184	34961.935420000002
      1.969762051	38169.180130000001
      1.980746793	41938.394229999998
      1.9926918389999999	46487.096960000003
      2.0061495709999999	52181.595710000001
      2.022124024	59707.652569999998
      2.042772002	70576.241299999994
      2.0725625070000002	88161.987269999998
      2.1158769670000002	116616.322
      2.1803765140000002	162656.4026
      2.2792825830000001	237150.818
      2.3747656959999999	310949.48619999998
  <EndBlock>
  <BeginBlock>
    <BlockName> = "ShaftAir"
    <Mu_x> = 1
    <Mu_y> = 1
    <H_c> = 0
    <H_cAngle> = 0
    <J_re> = 0
    <J_im> = 0
    <Sigma> = 0
    <d_lam> = 0
    <Phi_h> = 0
    <Phi_hx> = 0
    <Phi_hy> = 0
    <LamType> = 0
    <LamFill> = 1
    <NStrands> = 0
    <WireD> = 0
    <BHPoints> = 3
      -100	-7.9577471545947675e-011
      0	0
      100	7.9577471545947675e-011
  <EndBlock>
  <BeginBlock>
    <BlockName> = "Copper"
    <Mu_x> = 1
    <Mu_y> = 1
    <H_c> = 0
    <H_cAngle> = 0
    <J_re> = 0
    <J_im> = 0
    <Sigma> = 58
    <d_lam> = 0
    <Phi_h> = 0
    <Phi_hx> = 0
    <Phi_hy> = 0
    <LamType> = 0
    <LamFill> = 1
    <NStrands> = 0
    <WireD> = 0
    <BHPoints> = 0
  <EndBlock>
  <BeginBlock>
    <BlockName> = "Aluminium"
    <Mu_x> = 1
    <Mu_y> = 1
    <H_c> = 0
    <H_cAngle> = 0
    <J_re> = 0
    <J_im> = 0
    <Sigma> = 29
    <d_lam> = 0
    <Phi_h> = 0
    <Phi_hx> = 0
    <Phi_hy> = 0
    <LamType> = 0
    <LamFill> = 1
    <NStrands> = 0
    <WireD> = 0
    <BHPoints> = 0
  <EndBlock>
  <BeginBlock>
    <BlockName> = "BMN-52UH"
    <Mu_x> = 1.05
    <Mu_y> = 1.05
    <H_c> = 1098926.9880154678
    <H_cAngle> = 0
    <J_re> = 0
    <J_im> = 0
    <Sigma> = 0.66600000000000004
    <d_lam> = 0
    <Phi_h> = 0
    <Phi_hx> = 0
    <Phi_hy> = 0
    <LamType> = 0
    <LamFill> = 1
    <NStrands> = 0
    <WireD> = 0
    <BHPoints> = 0
  <EndBlock>
  <BeginBlock>
    <BlockName> = "DW235"
    <Mu_x> = 1
    <Mu_y> = 1
    <H_c> = 0
    <H_cAngle> = 0
    <J_re> = 0
    <J_im> = 0
    <Sigma> = 0
    <d_lam> = 0
    <Phi_h> = 0
    <Phi_hx> = 0
    <Phi_hy> = 0
    <LamType> = 0
    <LamFill> = 1
    <NStrands> = 0
    <WireD> = 0
    <BHPoints> = 0
  <EndBlock>
  <BeginBlock>
    <BlockName> = "Air"
    <Mu_x> = 1
    <Mu_y> = 1
    <H_c> = 0
    <H_cAngle> = 0
    <J_re> = 0
    <J_im> = 0
    <Sigma> = 0
    <d_lam> = 0
    <Phi_h> = 0
    <Phi_hx> = 0
    <Phi_hy> = 0
    <LamType> = 0
    <LamFill> = 1
    <NStrands> = 0
    <WireD> = 0
    <BHPoints> = 0
  <EndBlock>
  <BeginBlock>
    <BlockName> = "BMN-52UH_1"
    <Mu_x> = 1.05
    <Mu_y> = 1.05
    <H_c> = 1098926.9880154678
    <H_cAngle> = 0
    <J_re> = 0
    <J_im> = 0
    <Sigma> = 0.66600000000000004
    <d_lam> = 0
    <Phi_h> = 0
    <Phi_hx> = 0
    <Phi_hy> = 0
    <LamType> = 0
    <LamFill> = 1
    <NStrands> = 0
    <WireD> = 0
    <BHPoints> = 0
  <EndBlock>
  <BeginBlock>
    <BlockName> = "BMN-52UH_2"
    <Mu_x> = 1.05
    <Mu_y> = 1.05
    <H_c> = 1098926.9880154678
    <H_cAngle> = 0
    <J_re> = 0
    <J_im> = 0
    <Sigma> = 0.66600000000000004
    <d_lam> = 0
    <Phi_h> = 0
    <Phi_hx> = 0
    <Phi_hy> = 0
    <LamType> = 0
    <LamFill> = 1
    <NStrands> = 0
    <WireD> = 0
    <BHPoints> = 0
  <EndBlock>
  <BeginBlock>
    <BlockName> = "BMN-52UH_3"
    <Mu_x> = 1.05
    <Mu_y> = 1.05
    <H_c> = 1098926.9880154678
    <H_cAngle> = 0
    <J_re> = 0
    <J_im> = 0
    <Sigma> = 0.66600000000000004
    <d_lam> = 0
    <Phi_h> = 0
    <Phi_hx> = 0
    <Phi_hy> = 0
    <LamType> = 0
    <LamFill> = 1
    <NStrands> = 0
    <WireD> = 0
    <BHPoints> = 0
  <EndBlock>
  <BeginBlock>
    <BlockName> = "BMN-52UH_4"
    <Mu_x> = 1.05
    <Mu_y> = 1.05
    <H_c> = 1098926.9880154678
    <H_cAngle> = 0
    <J_re> = 0
    <J_im> = 0
    <Sigma> = 0.66600000000000004
    <d_lam> = 0
    <Phi_h> = 0
    <Phi_hx> = 0
    <Phi_hy> = 0
    <LamType> = 0
    <LamFill> = 1
    <NStrands> = 0
    <WireD> = 0
    <BHPoints> = 0
  <EndBlock>
[CircuitProps]  = 6
  <BeginCircuit>
    <CircuitName> = "fase1"
    <TotalAmps_re> = 0
    <TotalAmps_im> = 0
    <CircuitType> = 1
  <EndCircuit>
  <BeginCircuit>
    <CircuitName> = "fase2"
    <TotalAmps_re> = 0
    <TotalAmps_im> = 0
    <CircuitType> = 1
  <EndCircuit>
  <BeginCircuit>
    <CircuitName> = "fase3"
    <TotalAmps_re> = 0
    <TotalAmps_im> = 0
    <CircuitType> = 1
  <EndCircuit>
  <BeginCircuit>
    <CircuitName> = "fase1n"
    <TotalAmps_re> = 0
    <TotalAmps_im> = 0
    <CircuitType> = 1
  <EndCircuit>
  <BeginCircuit>
    <CircuitName> = "fase2n"
    <TotalAmps_re> = 0
    <TotalAmps_im> = 0
    <CircuitType> = 1
  <EndCircuit>
  <BeginCircuit>
    <CircuitName> = "fase3n"
    <TotalAmps_re> = 0
    <TotalAmps_im> = 0
    <CircuitType> = 1
  <EndCircuit>
[NumPoints] = 148
713.14886690387152	34.355295346795771	0	2
713.39819560295587	28.029491444318573	0	2
713.9655982630677	34.420349760467204	0	2
718.41464702019869	39.504999010800439	0	2
718.33983833589411	39.570434336608734	0	2
708.1798692040345	38.770827424645944	0	2
708.609290137377	27.841334836126368	0	2
697.10789159671026	30.624613918715117	0	2
700.06181544239837	27.894034802678412	0	2
704.28163969357502	28.0598321490607	0	2
707.0122188096118	31.013755994748998	0	2
706.65352860670544	40.143030877714367	0	2
708.65990889526938	40.300936430963624	0	2
717.70396417644338	50.806198494066734	0	2
717.54559847085432	50.943263034887053	0	2
696.37543928007585	49.276731060985909	0	2
713.1554835617643	34.206925401020186	0	2
708.36657809618544	34.018768792827977	0	2
713.15471602676917	34.206895244488095	0	0
706.65989999661997	39.980868175706064	0	2
696.75557278371832	39.591726099672186	0	2
696.75576065912992	39.591733481317213	0	0
713.6475243020401	21.703687541841379	0	2
714.46684206149587	21.704461410571177	0	2
719.29954092131959	16.982945279866676	0	2
719.23009684371425	16.911842247606792	0	2
709.0387110707195	16.911842247606792	0	2
700.09229921437259	27.118170189415071	0	2
697.36172009833581	24.164246343726777	0	2
704.31212346554923	27.283967535797363	0	2
707.26604731123746	24.553388419760655	0	2
707.62473751414393	15.424113536795284	0	2
709.63732192879206	15.424113536795284	0	2
719.47773076769022	5.6608240897522997	0	2
719.32982566182068	5.5125322669354979	0	2
698.09417241497022	5.5121292014559806	0	2
713.64090764414743	21.852057487616964	0	2
708.85200217856857	21.663900879424759	0	2
707.6183661242294	15.586276238803581	0	2
697.71403891132775	15.197134162769704	0	2
720	0	0	20
650	0	0	2
717.78048028785213	56.490548924048362	0	20
647.99626692653317	50.998412223099216	0	2
0	0	0	2
800	0	0	1
721	0	0	20
797.5338669865024	62.767276582275954	0	1
718.77739762158524	56.569008019776206	0	20
728.08585494960755	6.0631127570729078	0	1
728.09434835579202	4.7654344120429402	0	1
728.1712651958868	6.3904221974713415	0	1
781.69702673214226	7.0911127984928077	0	1
781.96993106313494	6.8238530499760133	0	1
781.98325086134901	5.1181414904691529	0	1
781.99225927874977	3.4124017126379256	0	1
781.72287665015358	3.141592653589794	0	1
728.19252903915424	3.1415926535897927	0	1
728.10284176197649	3.4677560670129726	0	1
755.04933300639914	3.1415926535897931	0	1
755.02576827558141	6.7419668997414561	0	1
720.97489614666267	6.0165709759717396	0	1
720.99188295903161	3.4212142859118044	0	1
727.94411437418921	15.592942698000853	0	1
727.96959313744117	14.295486703474841	0	1
728.02523295496394	15.921342082586921	0	1
781.53723705278753	17.322603224902537	0	1
781.81361632542473	17.058938580499131	0	1
781.84926205697468	15.353547504211331	0	1
781.88059714644419	13.648071777785496	0	1
781.61478237757137	13.373759809944165	0	1
728.08902084131614	12.673069208922698	0	1
727.99507190069312	12.998030708948829	0	1
754.94352392101075	13.024613911192812	0	1
754.87283376625294	16.624371251752173	0	1
720.83437399742797	15.453325329391941	0	1
720.88533152393177	12.858413340339917	0	1
727.67764432223964	25.120100868470182	0	1
727.72010407690402	23.823089536853466	0	1
727.75445733825859	25.449533927699942	0	1
781.24353499122856	27.551125512426683	0	1
781.52334184934466	27.29110114971613	0	1
781.58130740651779	25.586322766628939	0	1
781.63496379894991	23.881403316094406	0	1
781.37276243579265	23.603635441403405	0	1
727.86075833796929	22.202374299087793	0	1
727.7625638315684	22.52607820523675	0	1
754.70835914925829	22.905403468253045	0	1
754.5905556829548	26.503927103331399	0	1
720.57034058907436	24.887431835070885	0	1
720.65526009840312	22.293409171837453	0	1
727.28649045202997	34.64295483897434	0	1
727.34592392284651	33.34661040648156	0	1
727.35898474177839	34.973365126189016	0	1
780.81597087180148	37.774927056427856	0	1
781.09915737193182	37.518587529246105	0	1
781.17943282262854	35.814713944359241	0	1
781.25540132427648	34.110642898886915	0	1
780.99685829368855	33.829466711441611	0	1
727.50778064071881	31.727875126714878	0	1
727.40535739366294	32.050265973988779	0	1
754.3438789854149	32.782268302346338	0	1
754.17898239258295	36.378941643444065	0	1
720.18284116236703	34.317274007425752	0	1
720.301708104	31.724585142440187	0	1
726.77071978576248	44.159872917509247	0	1
726.84711678911196	42.86441750608531	0	1
726.83888292771701	44.491203818607083	0	1
780.25461795541719	47.992256061143763	0	1
780.54113557501285	47.739645291949159	0	1
780.64370716444773	46.036968455229818	0	1
780.74197475850008	44.334037798620756	0	1
780.48713436049854	44.049501476513377	0	1
727.03014823047567	41.247939546274544	0	1
726.92351379246122	41.568962094661366	0	1
753.85014588128024	42.653516063529594	0	1
753.63818441610226	46.247722839185421	0	1
719.67194211333788	43.74123609154524	0	1
719.82473612003673	41.150325268697358	0	1
726.13042069808569	53.669224429155392	0	1
726.22376814373467	52.374880008416021	0	1
726.19424101284278	54.001419172292188	0	1
779.55957242700788	58.20136183984841	0	1
779.8493720727497	57.952523112195799	0	1
779.97422222580917	56.251334768554564	0	1
780.0947720746193	54.549836289210056	0	1
779.84367797479467	54.261988586274597	0	1
726.42794294709472	50.760936343737924	0	1
726.31711558938377	51.080535587676657	0	1
753.22724443547997	52.517455364316262	0	1
752.96825441646195	56.108579725702221	0	1
719.03773098190902	53.157703340040939	0	1
719.224425873207	50.569014498562211	0	1
799.93146205920561	10.471676457075551	0	1
720.93823018085902	9.4375984069393404	0	1
799.72585998044576	20.941558646298517	0	1
720.7529313073768	18.873579729976541	0	1
799.38322899257832	31.407852607254888	0	1
720.44413512956123	28.306327162288468	0	1
798.90362780365911	41.868764994355068	0	1
720.01189455804774	37.734224451162504	0	1
798.28713859088282	52.322503384114448	0	1
719.45628365503308	47.155656174933149	0	1
720.66666666666663	0	0	20
718.44509184367416	56.542854987866917	0	20
720.33333333333337	0	0	20
718.1127860657632	56.516701955957643	0	20
660	76	0	0
[NumSegments] = 130
0	18	0.88888888888888895	0	0	2
2	0	0.88888888888888895	0	0	2
5	4	0.88888888888888895	0	0	2
6	17	0.88888888888888895	0	0	2
9	8	0.88888888888888895	0	0	2
11	19	0.88888888888888895	0	0	2
12	11	0.88888888888888895	0	0	2
15	14	0.88888888888888895	0	0	2
7	21	0.88888888888888895	0	0	2
1	6	0.88888888888888895	0	0	2
16	1	0.88888888888888895	0	0	2
17	5	0.88888888888888895	0	0	2
18	1	0.88888888888888895	0	0	2
17	18	0.88888888888888895	0	0	2
18	16	-1	0	0	0
10	7	0.88888888888888895	0	0	2
19	10	0.88888888888888895	0	0	2
21	15	0.88888888888888895	0	0	2
20	21	-1	0	0	0
21	19	0.88888888888888895	0	0	2
7	20	0.88888888888888895	0	0	2
22	1	0.88888888888888895	0	0	2
23	22	0.88888888888888895	0	0	2
26	25	0.88888888888888895	0	0	2
6	37	0.88888888888888895	0	0	2
29	27	0.88888888888888895	0	0	2
31	38	0.88888888888888895	0	0	2
32	31	0.88888888888888895	0	0	2
35	34	0.88888888888888895	0	0	2
28	35	0.88888888888888895	0	0	2
36	1	0.88888888888888895	0	0	2
37	26	0.88888888888888895	0	0	2
37	36	0.88888888888888895	0	0	2
30	28	0.88888888888888895	0	0	2
38	30	0.88888888888888895	0	0	2
39	38	0.88888888888888895	0	0	2
28	39	0.88888888888888895	0	0	2
40	41	-1	4	0	2
43	42	-1	4	0	2
41	44	-1	2	0	2
44	43	-1	2	0	2
45	46	-1	10	0	1
48	47	-1	10	0	1
49	50	0.88888888888888895	0	0	1
51	49	0.88888888888888895	0	0	1
52	60	0.88888888888888895	0	0	1
54	53	0.88888888888888895	0	0	1
55	54	0.88888888888888895	0	0	1
57	59	0.88888888888888895	0	0	1
58	57	0.88888888888888895	0	0	1
50	58	0.88888888888888895	0	0	1
59	56	0.88888888888888895	0	0	1
60	51	0.88888888888888895	0	0	1
59	60	0.88888888888888895	0	0	1
49	61	0.88888888888888895	0	0	1
62	58	0.88888888888888895	0	0	1
63	64	0.88888888888888895	0	0	1
65	63	0.88888888888888895	0	0	1
66	74	0.88888888888888895	0	0	1
68	67	0.88888888888888895	0	0	1
69	68	0.88888888888888895	0	0	1
71	73	0.88888888888888895	0	0	1
72	71	0.88888888888888895	0	0	1
64	72	0.88888888888888895	0	0	1
73	70	0.88888888888888895	0	0	1
74	65	0.88888888888888895	0	0	1
73	74	0.88888888888888895	0	0	1
63	75	0.88888888888888895	0	0	1
76	72	0.88888888888888895	0	0	1
77	78	0.88888888888888895	0	0	1
79	77	0.88888888888888895	0	0	1
80	88	0.88888888888888895	0	0	1
82	81	0.88888888888888895	0	0	1
83	82	0.88888888888888895	0	0	1
85	87	0.88888888888888895	0	0	1
86	85	0.88888888888888895	0	0	1
78	86	0.88888888888888895	0	0	1
87	84	0.88888888888888895	0	0	1
88	79	0.88888888888888895	0	0	1
87	88	0.88888888888888895	0	0	1
77	89	0.88888888888888895	0	0	1
90	86	0.88888888888888895	0	0	1
91	92	0.88888888888888895	0	0	1
93	91	0.88888888888888895	0	0	1
94	102	0.88888888888888895	0	0	1
96	95	0.88888888888888895	0	0	1
97	96	0.88888888888888895	0	0	1
99	101	0.88888888888888895	0	0	1
100	99	0.88888888888888895	0	0	1
92	100	0.88888888888888895	0	0	1
101	98	0.88888888888888895	0	0	1
102	93	0.88888888888888895	0	0	1
101	102	0.88888888888888895	0	0	1
91	103	0.88888888888888895	0	0	1
104	100	0.88888888888888895	0	0	1
105	106	0.88888888888888895	0	0	1
107	105	0.88888888888888895	0	0	1
108	116	0.88888888888888895	0	0	1
110	109	0.88888888888888895	0	0	1
111	110	0.88888888888888895	0	0	1
113	115	0.88888888888888895	0	0	1
114	113	0.88888888888888895	0	0	1
106	114	0.88888888888888895	0	0	1
115	112	0.88888888888888895	0	0	1
116	107	0.88888888888888895	0	0	1
115	116	0.88888888888888895	0	0	1
105	117	0.88888888888888895	0	0	1
118	114	0.88888888888888895	0	0	1
119	120	0.88888888888888895	0	0	1
121	119	0.88888888888888895	0	0	1
122	130	0.88888888888888895	0	0	1
124	123	0.88888888888888895	0	0	1
125	124	0.88888888888888895	0	0	1
127	129	0.88888888888888895	0	0	1
128	127	0.88888888888888895	0	0	1
120	128	0.88888888888888895	0	0	1
129	126	0.88888888888888895	0	0	1
130	121	0.88888888888888895	0	0	1
129	130	0.88888888888888895	0	0	1
119	131	0.88888888888888895	0	0	1
132	128	0.88888888888888895	0	0	1
133	134	0.88888888888888895	0	0	1
135	136	0.88888888888888895	0	0	1
137	138	0.88888888888888895	0	0	1
139	140	0.88888888888888895	0	0	1
141	142	0.88888888888888895	0	0	1
143	46	0.088888888888888892	7	0	20
144	48	0.088888888888888892	7	0	20
145	40	0.088888888888888892	5	0	20
146	42	0.088888888888888892	5	0	20
[NumArcSegments] = 52
2	3	88.647475378464222	2.633472194805893	0	0	2	2.633472194805893
3	4	91.352524621619096	10	0	0	2	10
7	8	89.999999999998408	4.4762327744597359	0	0	2	4.4762327744597359
9	10	90.000000000001506	4.4762327744595609	0	0	2	4.4762327744595609
12	13	89.549208234637362	1.2938488202699241	0	0	2	1.2938488202699241
13	14	90.450791765584498	10	0	0	2	10
24	23	88.647475378463355	2.6334721948112771	0	0	2	2.6334721948112771
25	24	91.35252462153592	10	0	0	2	10
27	28	90.000000000001421	4.4762327744595618	0	0	2	4.4762327744595618
30	29	89.999999999998579	4.4762327744595574	0	0	2	4.4762327744595574
33	32	89.54920823463813	1.2938488202713205	0	0	2	1.2938488202713205
34	33	90.450791765017073	10	0	0	2	10
40	42	4.5000000000000009	0.017683882565766151	0	0	2	0.017683882565766151
41	43	4.5000000000000009	0.019588300688233275	0	0	2	0.019588300688233275
45	133	0.75	0.88888888888888895	1	0	1	0.068000000000000005
46	62	0.27187500000000009	0.01765935568287327	0	0	1	0.01765935568287327
53	52	90.302589827139727	10	0	0	1	10
56	55	90.302589827179347	10	0	0	1	10
61	134	0.27187500000000026	0.01765935568287327	0	0	1	0.01765935568287327
62	61	0.20625000000000013	0.01765935568287327	0	0	1	0.01765935568287327
67	66	90.3025898271502	10	0	0	1	10
70	69	90.302589827170152	10	0	0	1	10
75	136	0.27187500000000003	0.01765935568287327	0	0	1	0.01765935568287327
76	75	0.20625000000000024	0.01765935568287327	0	0	1	0.01765935568287327
81	80	90.302589827150996	10	0	0	1	10
84	83	90.302589827183894	10	0	0	1	10
89	138	0.27187500000000026	0.01765935568287327	0	0	1	0.01765935568287327
90	89	0.20624999999999996	0.01765935568287327	0	0	1	0.01765935568287327
95	94	90.302589827151024	10	0	0	1	10
98	97	90.302589827185869	10	0	0	1	10
103	140	0.27187499999999898	0.01765935568287327	0	0	1	0.01765935568287327
104	103	0.20625000000000043	0.01765935568287327	0	0	1	0.01765935568287327
109	108	90.30258982713022	10	0	0	1	10
112	111	90.302589827182302	10	0	0	1	10
117	142	0.27187500000000064	0.01765935568287327	0	0	1	0.01765935568287327
118	117	0.20625000000000082	0.01765935568287327	0	0	1	0.01765935568287327
123	122	90.302589827167751	10	0	0	1	10
126	125	90.30258982717892	10	0	0	1	10
131	48	0.27187500000000064	0.01765935568287327	0	0	1	0.01765935568287327
132	131	0.20624999999999916	0.01765935568287327	0	0	1	0.01765935568287327
133	135	0.75	0.88888888888888895	1	0	1	0.11
134	76	0.27187499999999998	0.01765935568287327	0	0	1	0.01765935568287327
135	137	0.75	0.88888888888888895	1	0	1	0.094
136	90	0.27187500000000003	0.01765935568287327	0	0	1	0.01765935568287327
137	139	0.74999999999999944	0.88888888888888895	1	0	1	0.094
138	104	0.27187500000000026	0.01765935568287327	0	0	1	0.01765935568287327
139	141	0.75	0.88888888888888895	1	0	1	0.094
140	118	0.27187499999999865	0.01765935568287327	0	0	1	0.01765935568287327
141	47	0.75000000000000067	0.88888888888888895	1	0	1	0.074999999999999997
142	132	0.27187500000000064	0.01765935568287327	0	0	1	0.01765935568287327
143	144	4.5	0.088888888888888892	11	0	20	0.010999999999999999
145	146	4.5	0.088888888888888892	11	0	20	0.010999999999999999
[NumHoles] = 0
[NumBlockLabels] = 38
710.88238684957059	31.024130118573279	8	0.88888888888888895	0	2.2499999999999747	201	1	0
701.88389578875115	35.302741046899655	9	0.88888888888888895	0	2.2499999999999747	202	1	0
711.12509889076227	24.846696161871666	10	0.88888888888888895	0	2.2499999999999747	203	1	0
702.49004311919646	19.875261291576116	11	0.88888888888888895	0	2.2499999999999747	204	1	0
716.90725900010023	37.831433967847659	7	0.88888888888888895	0	0	2	1	0
702.11589136183215	29.398059215367994	7	0.88888888888888895	0	0	2	1	0
714.63625108068163	47.349854535617993	7	0.88888888888888895	0	0	2	1	0
717.6649692931569	18.532546479538968	7	0.88888888888888895	0	0	2	1	0
702.25804754611556	25.779943123107778	7	0.88888888888888895	0	0	2	1	0
716.14855330237697	8.8655648232203781	7	0.88888888888888895	0	0	2	1	0
673.36683970199647	26.456655187307771	1	0.88888888888888895	0	0	22	1	0
324.74943677823495	12.759440121697299	7	0.88888888888888895	0	0	2	1	0