[Format]      =  4.0
[Frequency]   =  0
[Precision]   =  1e-008
[MinAngle]    =  15
[DoSmartMesh] =  1
[Depth]       =  300
[LengthUnits] =  millimeters
[ProblemType] =  planar
[Coordinates] =  cartesian
[ACSolver]    =  0
[PrevType]    =  0
[PrevSoln]    =  ""
[Comment]     =  "Add comments here."
[PointProps]   = 0
[BdryProps]   = 11
  <BeginBdry>
    <BdryName> = "A=0"
    <BdryType> = 0
    <A_0> = 0
    <A_1> = 0
    <A_2> = 0
    <Phi> = 0
    <c0> = 0
    <c0i> = 0
    <c1> = 0
    <c1i> = 0
    <Mu_ssd> = 0
    <Sigma_ssd> = 0
    <innerangle> = 0
    <outerangle> = 0
  <EndBdry>
  <BeginBdry>
    <BdryName> = "APr1"
    <BdryType> = 5
    <A_0> = 0
    <A_1> = 0
    <A_2> = 0
    <Phi> = 0
    <c0> = 0
    <c0i> = 0
    <c1> = 0
    <c1i> = 0
    <Mu_ssd> = 0
    <Sigma_ssd> = 0
    <innerangle> = 0
    <outerangle> = 0
  <EndBdry>
  <BeginBdry>
    <BdryName> = "APr2"
    <BdryType> = 5
    <A_0> = 0
    <A_1> = 0
    <A_2> = 0
    <Phi> = 0
    <c0> = 0
    <c0i> = 0
    <c1> = 0
    <c1i> = 0
    <Mu_ssd> = 0
    <Sigma_ssd> = 0
    <innerangle> = 0
    <outerangle> = 0
  <EndBdry>
  <BeginBdry>
    <BdryName> = "APr3"
    <BdryType> = 5
    <A_0> = 0
    <A_1> = 0
    <A_2> = 0
    <Phi> = 0
    <c0> = 0
    <c0i> = 0
    <c1> = 0
    <c1i> = 0
    <Mu_ssd> = 0
    <Sigma_ssd> = 0
    <innerangle> = 0
    <outerangle> = 0
  <EndBdry>
  <BeginBdry>
    <BdryName> = "APg1"
    <BdryType> = 5
    <A_0> = 0
    <A_1> = 0
    <A_2> = 0
    <Phi> = 0
    <c0> = 0
    <c0i> = 0
    <c1> = 0
    <c1i> = 0
    <Mu_ssd> = 0
    <Sigma_ssd> = 0
    <innerangle> = 0
    <outerangle> = 0
  <EndBdry>
  <BeginBdry>
    <BdryName> = "APg2"
    <BdryType> = 5
    <A_0> = 0
    <A_1> = 0
    <A_2> = 0
    <Phi> = 0
    <c0> = 0
    <c0i> = 0
    <c1> = 0
    <c1i> = 0
    <Mu_ssd> = 0
    <Sigma_ssd> = 0
    <innerangle> = 0
    <outerangle> = 0
  <EndBdry>
  <BeginBdry>
    <BdryName> = "APg3"
    <BdryType> = 5
    <A_0> = 0
    <A_1> = 0
    <A_2> = 0
    <Phi> = 0
    <c0> = 0
    <c0i> = 0
    <c1> = 0
    <c1i> = 0
    <Mu_ssd> = 0
    <Sigma_ssd> = 0
    <innerangle> = 0
    <outerangle> = 0
  <EndBdry>
  <BeginBdry>
    <BdryName> = "APs1"
    <BdryType> = 5
    <A_0> = 0
    <A_1> = 0
    <A_2> = 0
    <Phi> = 0
    <c0> = 0
    <c0i> = 0
    <c1> = 0
    <c1i> = 0
    <Mu_ssd> = 0
    <Sigma_ssd> = 0
    <innerangle> = 0
    <outerangle> = 0
  <EndBdry>
  <BeginBdry>
    <BdryName> = "APs2"
    <BdryType> = 5
    <A_0> = 0
    <A_1> = 0
    <A_2> = 0
    <Phi> = 0
    <c0> = 0
    <c0i> = 0
    <c1> = 0
    <c1i> = 0
    <Mu_ssd> = 0
    <Sigma_ssd> = 0
    <innerangle> = 0
    <outerangle> = 0
  <EndBdry>
  <BeginBdry>
    <BdryName> = "APs3"
    <BdryType> = 5
    <A_0> = 0
    <A_1> = 0
    <A_2> = 0
    <Phi> = 0
    <c0> = 0
    <c0i> = 0
    <c1> = 0
    <c1i> = 0
    <Mu_ssd> = 0
    <Sigma_ssd> = 0
    <innerangle> = 0
    <outerangle> = 0
  <EndBdry>
  <BeginBdry>
    <BdryName> = "AGap"
    <BdryType> = 7
    <A_0> = 0
    <A_1> = 0
    <A_2> = 0
    <Phi> = 0
    <c0> = 0
    <c0i> = 0
    <c1> = 0
    <c1i> = 0
    <Mu_ssd> = 0
    <Sigma_ssd> = 0
    <innerangle> = 1.3999999999999999
    <outerangle> = 0
  <EndBdry>
[BlockProps]  = 9
  <BeginBlock>
    <BlockName> = "M270-35A"
    <Mu_x> = 1
    <Mu_y> = 1
    <H_c> = 0
    <H_cAngle> = 0
    <J_re> = 0
    <J_im> = 0
    <Sigma> = 0
    <d_lam> = 0
    <Phi_h> = 0
    <Phi_hx> = 0
    <Phi_hy> = 0
    <LamType> = 0
    <LamFill> = 1
    <NStrands> = 0
    <WireD> = 0
    <BHPoints> = 200
      0	0
      0.0045422769999999999	3.2767874890000002
      0.0090353559999999996	6.114592773
      0.013222249	8.4602422570000009
      0.017196487	10.462328400000001
      0.020991169	12.199266809999999
      0.024640190999999999	13.72982376
      0.028168996000000002	15.09561901
      0.031597466999999997	16.327217480000002
      0.034941272000000002	17.447599879999999
      0.038212956999999999	18.47443998
      0.041422729999999998	19.421601849999998
      0.044579012000000001	20.300151339999999
      0.047688851999999997	21.119056130000001
      0.050758219	21.885681389999998
      0.053792226999999998	22.60614816
      0.056795300999999999	23.285597330000002
      0.059771310000000001	23.928387470000001
      0.062723663999999998	24.538245379999999
      0.065655396000000005	25.11838217
      0.068569221	25.67158405
      0.071467592999999996	26.200284
      0.074352739000000001	26.70661905
      0.077226698999999996	27.19247648
      0.080091349000000006	27.65953137
      0.082948429000000004	28.109277410000001
      0.085799557999999998	28.54305239
      0.088646256000000007	28.96205934
      0.091489953999999998	29.36738437
      0.094332005999999996	29.760011540000001
      0.097173704999999999	30.140835630000002
      0.100016285	30.510672870000001
      0.102860934	30.870270300000001
      0.105708802	31.220313650000001
      0.108561001	31.561434299999998
      0.11141862	31.894215259999999
      0.114282722	32.21919639
      0.117154355	32.536878999999999
      0.120034552	32.847729870000002
      0.12292433699999999	33.152184810000001
      0.12582473199999999	33.45065185
      0.12873675200000001	33.743513989999997
      0.13166142	34.031131799999997
      0.13459976100000001	34.313845620000002
      0.137552811	34.591977620000002
      0.14052161499999999	34.865833639999998
      0.14350723800000001	35.135704879999999
      0.14651076099999999	35.401869419999997
      0.14953328699999999	35.664593680000003
      0.15257594699999999	35.924133650000002
      0.155639899	36.180736189999998
      0.158726334	36.434640119999997
      0.161836481	36.686077320000003
      0.16497160599999999	36.93527375
      0.16813302299999999	37.182450420000002
      0.17132209400000001	37.427824389999998
      0.17454023399999999	37.671609650000001
      0.17778891699999999	37.914018050000003
      0.18106968000000001	38.155260249999998
      0.18438413100000001	38.395546590000002
      0.18773395400000001	38.635088090000004
      0.191120915	38.87409736
      0.19454686800000001	39.112789630000002
      0.19801376800000001	39.351383830000003
      0.20152367299999999	39.590103640000002
      0.20507876	39.829178749999997
      0.208681327	40.068846100000002
      0.21233381500000001	40.309351300000003
      0.216038808	40.550950149999998
      0.21979905799999999	40.793910310000001
      0.22361749	41.038513199999997
      0.227497227	41.285056060000002
      0.2314416	41.53385428
      0.23545417299999999	41.785244059999997
      0.23953876299999999	42.039585369999998
      0.24369946200000001	42.297265359999997
      0.247940667	42.558702250000003
      0.25226710400000002	42.824349750000003
      0.25668386300000001	43.0947022
      0.26119642799999998	43.370300520000001
      0.26581071499999998	43.651739030000002
      0.27054201700000002	43.94020278
      0.275438138	44.23873004
      0.28051031599999998	44.548036490000001
      0.28576849199999999	44.868763260000001
      0.29122336399999998	45.201605100000002
      0.296886504	45.547319020000003
      0.30277045699999999	45.906731970000003
      0.30888884599999999	46.280749559999997
      0.31525650100000002	46.670366299999998
      0.321889598	47.076677459999999
      0.328805825	47.50089294
      0.33602457000000002	47.944353649999996
      0.34356714500000002	48.408550759999997
      0.351457032	48.895148689999999
      0.35972019	49.406012390000001
      0.36838539799999998	49.943240269999997
      0.37748466600000002	50.509203810000002
      0.38705371900000002	51.106595769999998
      0.39713256899999999	51.738489119999997
      0.40776619800000002	52.408409570000003
      0.41900536300000002	53.120425429999997
      0.43090757000000002	53.879259759999997
      0.44353822799999998	54.690431349999997
      0.45697202599999998	55.560433060000001
      0.47129457299999999	56.49695913
      0.486604327	57.509196449999997
      0.503014823	58.60819978
      0.520657166	59.807376320000003
      0.53968265500000001	61.123111049999999
      0.56026517099999995	62.575567960000001
      0.58260257699999995	64.189698669999999
      0.60691558199999995	65.996464399999994
      0.63344113800000001	68.034201780000004
      0.662415215	70.349880479999996
      0.69403682899999997	72.999622560000006
      0.72840307800000004	76.047204840000006
      0.76540934699999996	79.558509650000005
      0.80463064699999998	83.589963030000007
      0.84524547999999999	88.171938179999998
      0.88609953900000005	93.294734669999997
      0.92594964300000004	98.90894376
      0.963771241	104.9435902
      0.99893980100000002	111.3300564
      1.0312218310000001	118.0174305
      1.0606584889999999	124.9760964
      1.0874410889999999	132.19454709999999
      1.1118223309999999	139.6744898
      1.1340651580000001	147.42664859999999
      1.1544176930000001	155.46782519999999
      1.173103241	163.8190534
      1.1903180360000001	172.50453999999999
      1.2062325739999999	181.55112829999999
      1.220994358	190.98810510000001
      1.234730984	200.84723579999999
      1.2475531	211.16296399999999
      1.2595570490000001	221.97273730000001
      1.270827143	233.31744900000001
      1.281437594	245.2419931
      1.291454146	257.79594609999998
      1.3009354369999999	271.03439809999998
      1.309934159	285.01896390000002
      1.318498043	299.81902289999999
      1.326670706	315.51324579999999
      1.3344924010000001	332.19149570000002
      1.3420006879999999	349.95721329999998
      1.3492310569999999	368.93044570000001
      1.356217531	389.25173360000002
      1.362993272	411.08716509999999
      1.3695912379999999	434.63503709999998
      1.3760449050000001	460.1347695
      1.382389146	487.87903890000001
      1.3886613240000001	518.23060969999995
      1.394902732	551.64618570000005
      1.401160583	588.71104339999999
      1.4074908660000001	630.19074279999995
      1.4139626249999999	677.11087850000001
      1.420664664	730.8848299
      1.4277165590000001	793.52783980000004
      1.435287779	868.03580320000003
      1.4436331710000001	959.10175079999999
      1.453164339	1074.5891859999999
      1.464608755	1228.9034079999999
      1.479413587	1451.8548430000001
      1.5007295060000001	1812.597843
      1.531321148	2396.2922779999999
      1.5749716949999999	3340.7297119999998
      1.6351726849999999	4868.8615820000005
      1.6746062129999999	6056.7860730000002
      1.7053540309999999	7126.7301200000002
      1.7307497590000001	8135.9466300000004
      1.752580204	9119.3875740000003
      1.771845345	10098.25848
      1.789165838	11087.22133
      1.804957089	12097.58993
      1.819514077	13138.977849999999
      1.8330565510000001	14220.25051
      1.845754994	15350.15127
      1.8577465099999999	16537.778849999999
      1.869145125	17793.012470000001
      1.8800488470000001	19126.948680000001
      1.8905448170000001	20552.403480000001
      1.9007133519999999	22084.53774
      1.9106314310000001	23741.68173
      1.920376064	25546.46932
      1.930027954	27527.455720000002
      1.9396760099999999	29721.505959999999
      1.9494234969999999	32177.45292
      1.959397184	34961.935420000002
      1.969762051	38169.180130000001
      1.980746793	41938.394229999998
      1.9926918389999999	46487.096960000003
      2.0061495709999999	52181.595710000001
      2.022124024	59707.652569999998
      2.042772002	70576.241299999994
      2.0725625070000002	88161.987269999998
      2.1158769670000002	116616.322
      2.1803765140000002	162656.4026
      2.2792825830000001	237150.818
      2.3747656959999999	310949.48619999998
  <EndBlock>
  <BeginBlock>
    <BlockName> = "ShaftAir"
    <Mu_x> = 1
    <Mu_y> = 1
    <H_c> = 0
    <H_cAngle> = 0
    <J_re> = 0
    <J_im> = 0
    <Sigma> = 0
    <d_lam> = 0
    <Phi_h> = 0
    <Phi_hx> = 0
    <Phi_hy> = 0
    <LamType> = 0
    <LamFill> = 1
    <NStrands> = 0
    <WireD> = 0
    <BHPoints> = 3
      -100	-7.9577471545947675e-011
      0	0
      100	7.9577471545947675e-011
  <EndBlock>
  <BeginBlock>
    <BlockName> = "Copper"
    <Mu_x> = 1
    <Mu_y> = 1
    <H_c> = 0
    <H_cAngle> = 0
    <J_re> = 0
    <J_im> = 0
    <Sigma> = 58
    <d_lam> = 0
    <Phi_h> = 0
    <Phi_hx> = 0
    <Phi_hy> = 0
    <LamType> = 0
    <LamFill> = 1
    <NStrands> = 0
    <WireD> = 0
    <BHPoints> = 0
  <EndBlock>
  <BeginBlock>
    <BlockName> = "Aluminium"
    <Mu_x> = 1
    <Mu_y> = 1
    <H_c> = 0
    <H_cAngle> = 0
    <J_re> = 0
    <J_im> = 0
    <Sigma> = 29
    <d_lam> = 0
    <Phi_h> = 0
    <Phi_hx> = 0
    <Phi_hy> = 0
    <LamType> = 0
    <LamFill> = 1
    <NStrands> = 0
    <WireD> = 0
    <BHPoints> = 0
  <EndBlock>
  <BeginBlock>
    <BlockName> = "BMH-38EH"
    <Mu_x> = 1.05
    <Mu_y> = 1.05
    <H_c> = 954929.65855137201
    <H_cAngle> = 0
    <J_re> = 0
    <J_im> = 0
    <Sigma> = 0.66666666666666663
    <d_lam> = 0
    <Phi_h> = 0
    <Phi_hx> = 0
    <Phi_hy> = 0
    <LamType> = 0
    <LamFill> = 1
    <NStrands> = 0
    <WireD> = 0
    <BHPoints> = 0
  <EndBlock>
  <BeginBlock>
    <BlockName> = "DW235"
    <Mu_x> = 1
    <Mu_y> = 1
    <H_c> = 0
    <H_cAngle> = 0
    <J_re> = 0
    <J_im> = 0
    <Sigma> = 0
    <d_lam> = 0
    <Phi_h> = 0
    <Phi_hx> = 0
    <Phi_hy> = 0
    <LamType> = 0
    <LamFill> = 1
    <NStrands> = 0
    <WireD> = 0
    <BHPoints> = 0
  <EndBlock>
  <BeginBlock>
    <BlockName> = "Air"
    <Mu_x> = 1
    <Mu_y> = 1
    <H_c> = 0
    <H_cAngle> = 0
    <J_re> = 0
    <J_im> = 0
    <Sigma> = 0
    <d_lam> = 0
    <Phi_h> = 0
    <Phi_hx> = 0
    <Phi_hy> = 0
    <LamType> = 0
    <LamFill> = 1
    <NStrands> = 0
    <WireD> = 0
    <BHPoints> = 0
  <EndBlock>
  <BeginBlock>
    <BlockName> = "BMH-38EH_1"
    <Mu_x> = 1.05
    <Mu_y> = 1.05
    <H_c> = 954929.65855137201
    <H_cAngle> = 0
    <J_re> = 0
    <J_im> = 0
    <Sigma> = 0.66666666666666663
    <d_lam> = 0
    <Phi_h> = 0
    <Phi_hx> = 0
    <Phi_hy> = 0
    <LamType> = 0
    <LamFill> = 1
    <NStrands> = 0
    <WireD> = 0
    <BHPoints> = 0
  <EndBlock>
  <BeginBlock>
    <BlockName> = "BMH-38EH_2"
    <Mu_x> = 1.05
    <Mu_y> = 1.05
    <H_c> = 954929.65855137201
    <H_cAngle> = 0
    <J_re> = 0
    <J_im> = 0
    <Sigma> = 0.66666666666666663
    <d_lam> = 0
    <Phi_h> = 0
    <Phi_hx> = 0
    <Phi_hy> = 0
    <LamType> = 0
    <LamFill> = 1
    <NStrands> = 0
    <WireD> = 0
    <BHPoints> = 0
  <EndBlock>
[CircuitProps]  = 6
  <BeginCircuit>
    <CircuitName> = "fase1"
    <TotalAmps_re> = -326.53645412852057
    <TotalAmps_im> = -0
    <CircuitType> = 1
  <EndCircuit>
  <BeginCircuit>
    <CircuitName> = "fase2"
    <TotalAmps_re> = 743.07132238029999
    <TotalAmps_im> = 0
    <CircuitType> = 1
  <EndCircuit>
  <BeginCircuit>
    <CircuitName> = "fase3"
    <TotalAmps_re> = -416.53486825177953
    <TotalAmps_im> = -0
    <CircuitType> = 1
  <EndCircuit>
  <BeginCircuit>
    <CircuitName> = "fase1n"
    <TotalAmps_re> = 326.53645412852057
    <TotalAmps_im> = 0
    <CircuitType> = 1
  <EndCircuit>
  <BeginCircuit>
    <CircuitName> = "fase2n"
    <TotalAmps_re> = -743.07132238029999
    <TotalAmps_im> = -0
    <CircuitType> = 1
  <EndCircuit>
  <BeginCircuit>
    <CircuitName> = "fase3n"
    <TotalAmps_re> = 416.53486825177953
    <TotalAmps_im> = 0
    <CircuitType> = 1
  <EndCircuit>
[NumPoints] = 67
1026.1582587674104	40.317867793775513	0	2
1021.1030791347457	40.11924924506512	0	2
1023.7842558772358	80.573568357710371	0	20
1018.7407713324932	80.176637515695546	0	2
1020.5612696398856	76.288580567104077	0	2
1019.0477683210487	76.175443932650722	0	2
1026.95	0	0	20
1021.8909199999999	0	0	2
1023.4007528863464	4.01890601756444	0	2
1021.8830405889372	4.0129459446723885	0	2
909.41999999999996	0	0	2
906.61656164358124	71.352270836816743	0	2
0	0	0	2
1081	0	0	1
1031.2740000000001	0	0	20
1077.6676377655112	84.81428248180039	0	1
1028.0949264282979	80.912825487637576	0	20
1040.7384401489355	17.336642432343766	0	1
1040.7870328101189	13.624648592082238	0	1
1041.3827256605221	19.873522702446103	0	1
1063.7252780211854	20.166002734352663	0	1
1066.7355496668702	17.242093245943721	0	1
1066.7880353503476	13.96502036025845	0	1
1066.8213514199329	10.687696530581093	0	1
1063.8886503466927	7.685989267665815	0	1
1041.5460979860293	7.3935092357592547	0	1
1040.8356254713024	9.9126547518207104	0	1
1053.8600951835072	7.5547082892548891	0	1
1053.6967228579999	20.034721755941735	0	1
1031.1303744768688	17.210865962898225	0	1
1031.2275597992357	9.7868782823751665	0	1
1039.9279846857353	44.574057947769724	0	1
1040.0737293663033	40.864608122668081	0	1
1040.5056416330747	47.126934320895813	0	1
1062.8328815243856	48.004173965411326	0	1
1065.9186606526955	45.160066153019535	0	1
1066.05691211817	41.885490153388758	0	1
1066.1760071076478	38.610161493766199	0	1
1063.3228865336762	35.532713676563958	0	1
1040.9956466423655	34.655474032048446	0	1
1040.2194740468708	37.155158297566437	0	1
1053.3012044412621	35.138960714756152	0	1
1052.8111994319713	47.61042100360352	0	1
1030.3265039019468	44.196814740342589	0	1
1030.6179932630823	36.777915090139295	0	1
1038.4048145273937	71.780924630402168	0	1
1038.6476113412218	68.076561092079373	0	1
1038.9154470132689	74.348047492604877	0	1
1061.212072460276	75.809445533496074	0	1
1064.3712442323347	73.047088606549707	0	1
1064.5951667291572	69.777253723794857	0	1
1064.7999590167708	66.50616498088408	0	1
1062.0283743283928	63.355085738406828	0	1
1039.7317488813858	61.893687697515624	0	1
1038.89040815505	64.372197553756578	0	1
1052.020433667062	62.699130651813782	0	1
1051.2041317989451	75.153490446903021	0	1
1028.8164990072075	71.152473228644084	0	1
1029.3020926348636	63.743746151998494	0	1
1080.6295682985774	28.297281120810876	0	1
1030.9206081568429	26.995606189253579	0	1
1079.5185270696943	56.575168698622285	0	1
1029.8606748244886	53.972710938485669	0	1
1029.8326666666667	0	0	20
1026.6580362446105	80.799739777661827	0	20
1028.3913333333335	0	0	20
1025.2211460609233	80.686654067686106	0	20
[NumSegments] = 56
0	1	1.2011111111111112	0	0	2
3	2	-1	4	0	2
5	4	1.2011111111111112	0	0	2
7	6	-1	4	0	2
9	8	1.2011111111111112	0	0	2
7	10	-1	3	0	2
11	3	-1	3	0	2
10	12	-1	2	0	2
12	11	-1	2	0	2
13	14	-1	10	0	1
16	15	-1	10	0	1
17	18	1.2011111111111112	0	0	1
19	17	1.2011111111111112	0	0	1
20	28	1.2011111111111112	0	0	1
22	21	1.2011111111111112	0	0	1
23	22	1.2011111111111112	0	0	1
25	27	1.2011111111111112	0	0	1
26	25	1.2011111111111112	0	0	1
18	26	1.2011111111111112	0	0	1
27	24	1.2011111111111112	0	0	1
28	19	1.2011111111111112	0	0	1
27	28	1.2011111111111112	0	0	1
17	29	1.2011111111111112	0	0	1
30	26	1.2011111111111112	0	0	1
31	32	1.2011111111111112	0	0	1
33	31	1.2011111111111112	0	0	1
34	42	1.2011111111111112	0	0	1
36	35	1.2011111111111112	0	0	1
37	36	1.2011111111111112	0	0	1
39	41	1.2011111111111112	0	0	1
40	39	1.2011111111111112	0	0	1
32	40	1.2011111111111112	0	0	1
41	38	1.2011111111111112	0	0	1
42	33	1.2011111111111112	0	0	1
41	42	1.2011111111111112	0	0	1
31	43	1.2011111111111112	0	0	1
44	40	1.2011111111111112	0	0	1
45	46	1.2011111111111112	0	0	1
47	45	1.2011111111111112	0	0	1
48	56	1.2011111111111112	0	0	1
50	49	1.2011111111111112	0	0	1
51	50	1.2011111111111112	0	0	1
53	55	1.2011111111111112	0	0	1
54	53	1.2011111111111112	0	0	1
46	54	1.2011111111111112	0	0	1
55	52	1.2011111111111112	0	0	1
56	47	1.2011111111111112	0	0	1
55	56	1.2011111111111112	0	0	1
45	57	1.2011111111111112	0	0	1
58	54	1.2011111111111112	0	0	1
59	60	1.2011111111111112	0	0	1
61	62	1.2011111111111112	0	0	1
63	14	0.12011111111111113	7	0	20
64	16	0.12011111111111113	7	0	20
65	6	0.12011111111111113	5	0	20
66	2	0.12011111111111113	5	0	20
[NumArcSegments] = 29
0	2	2.2500000000000004	0.016753151904410041	0	0	2	0.016753151904410041
1	5	2.0250000000000008	0.016836091809323335	0	0	2	0.016836091809323335
0	4	13.188434443058384	0.1085459203919705	0	0	2	0.1085459203919705
5	3	0.22500000000000067	0.016836091809323335	0	0	2	0.016836091809323335
6	0	2.2500000000000004	0.016753151904410041	0	0	2	0.016753151904410041
7	9	0.22500000000000042	0.016836091809323335	0	0	2	0.016836091809323335
8	0	13.188434443058398	0.10854592039197054	0	0	2	0.10854592039197054
9	1	2.024999999999999	0.016836091809323335	0	0	2	0.016836091809323335
10	11	4.5	0.018918265870812044	0	0	2	0.018918265870812044
13	59	1.5000000000000002	1.2011111111111112	1	0	1	0.079000000000000001
14	30	0.54375000000000007	0.016682908080911461	0	0	1	0.016682908080911461
21	20	89.832427773065817	5.7893928246524169	0	0	1	5.7893928246524169
24	23	89.832427773066215	5.7893928246521815	0	0	1	5.7893928246521815
29	60	0.5437500000000004	0.016682908080911461	0	0	1	0.016682908080911461
30	29	0.4125000000000002	0.016682908080911461	0	0	1	0.016682908080911461
35	34	89.832427773063543	5.7893928246522099	0	0	1	5.7893928246522099
38	37	89.832427773068702	5.7893928246521984	0	0	1	5.7893928246521984
43	62	0.54375000000000084	0.016682908080911461	0	0	1	0.016682908080911461
44	43	0.41250000000000059	0.016682908080911461	0	0	1	0.016682908080911461
49	48	89.832427773063699	5.7893928246522535	0	0	1	5.7893928246522535
52	51	89.832427773063912	5.7893928246521575	0	0	1	5.7893928246521575
57	16	0.54374999999999973	0.016682908080911461	0	0	1	0.016682908080911461
58	57	0.4124999999999992	0.016682908080911461	0	0	1	0.016682908080911461
59	61	1.5000000000000009	1.2011111111111112	1	0	1	0.094
60	44	0.54375000000000051	0.016682908080911461	0	0	1	0.016682908080911461
61	15	1.5	1.2011111111111112	1	0	1	0.070999999999999994
62	58	0.54375000000000018	0.016682908080911461	0	0	1	0.016682908080911461
63	64	4.5	0.12011111111111113	11	0	20	0.0089999999999999993
65	66	4.5	0.12011111111111113	11	0	20	0.0089999999999999993
[NumHoles] = 0
[NumBlockLabels] = 20
1022.3186797192635	58.275218882007394	8	1.2011111111111112	0	-177.75000000000003	201	1	0
1023.7394333881244	22.114623325892506	9	1.2011111111111112	0	-177.75000000000003	202	1	0
1020.5335162926657	78.303557593290179	7	1.2011111111111112	0	0	2	1	0
1023.5311783688209	2.0079629905592071	7	1.2011111111111112	0	0	2	1	0
964.91097463639187	37.911455446338643	1	1.2011111111111112	0	0	22	1	0
454.35943506901907	17.851830823806086	7	1.2011111111111112	0	0	2	1	0
1047.2827209154364	13.709681807340276	3	1.2011111111111112	1	0	1	1	0
1060.2740971260707	13.879748237856349	3	1.2011111111111112	1	0	1	1	0
1035.9863405323379	13.561804087662454	7	1.2011111111111112	0	0	10	1	0
1073.8477117289247	14.057436586440895	1	1.2011111111111112	0	0	12	1	0
1046.5649656514599	41.119649490923962	3	1.2011111111111112	3	0	1	-1	0
1059.5474382217733	41.62973222743571	3	1.2011111111111112	3	0	1	-1	0
1035.2763272432092	40.676117679892904	7	1.2011111111111112	0	0	10	1	0
1073.1117501471956	42.16267549447096	1	1.2011111111111112	0	0	12	1	0
1045.1299470371127	68.501435820718896	3	1.2011111111111112	2	0	1	1	0
1058.0946184288944	69.351185277997914	3	1.2011111111111112	2	0	1	1	0
1033.8567872725948	67.762553892882977	7	1.2011111111111112	0	0	10	1	0
1071.6403313750438	70.239018210789752	1	1.2011111111111112	0	0	12	1	0
1029.7588140613311	40.459333996560687	7	0.12011111111111113	0	0	20	1	0
1026.8783698261946	40.346161034332546	7	0.12011111111111113	0	0	20	1	0
