[Format]      =  4.0
[Frequency]   =  0
[Precision]   =  1e-008
[MinAngle]    =  15
[DoSmartMesh] =  1
[Depth]       =  300
[LengthUnits] =  millimeters
[ProblemType] =  planar
[Coordinates] =  cartesian
[ACSolver]    =  0
[PrevType]    =  0
[PrevSoln]    =  ""
[Comment]     =  "Add comments here."
[PointProps]   = 0
[BdryProps]   = 11
  <BeginBdry>
    <BdryName> = "A=0"
    <BdryType> = 0
    <A_0> = 0
    <A_1> = 0
    <A_2> = 0
    <Phi> = 0
    <c0> = 0
    <c0i> = 0
    <c1> = 0
    <c1i> = 0
    <Mu_ssd> = 0
    <Sigma_ssd> = 0
    <innerangle> = 0
    <outerangle> = 0
  <EndBdry>
  <BeginBdry>
    <BdryName> = "APr1"
    <BdryType> = 5
    <A_0> = 0
    <A_1> = 0
    <A_2> = 0
    <Phi> = 0
    <c0> = 0
    <c0i> = 0
    <c1> = 0
    <c1i> = 0
    <Mu_ssd> = 0
    <Sigma_ssd> = 0
    <innerangle> = 0
    <outerangle> = 0
  <EndBdry>
  <BeginBdry>
    <BdryName> = "APr2"
    <BdryType> = 5
    <A_0> = 0
    <A_1> = 0
    <A_2> = 0
    <Phi> = 0
    <c0> = 0
    <c0i> = 0
    <c1> = 0
    <c1i> = 0
    <Mu_ssd> = 0
    <Sigma_ssd> = 0
    <innerangle> = 0
    <outerangle> = 0
  <EndBdry>
  <BeginBdry>
    <BdryName> = "APr3"
    <BdryType> = 5
    <A_0> = 0
    <A_1> = 0
    <A_2> = 0
    <Phi> = 0
    <c0> = 0
    <c0i> = 0
    <c1> = 0
    <c1i> = 0
    <Mu_ssd> = 0
    <Sigma_ssd> = 0
    <innerangle> = 0
    <outerangle> = 0
  <EndBdry>
  <BeginBdry>
    <BdryName> = "APg1"
    <BdryType> = 5
    <A_0> = 0
    <A_1> = 0
    <A_2> = 0
    <Phi> = 0
    <c0> = 0
    <c0i> = 0
    <c1> = 0
    <c1i> = 0
    <Mu_ssd> = 0
    <Sigma_ssd> = 0
    <innerangle> = 0
    <outerangle> = 0
  <EndBdry>
  <BeginBdry>
    <BdryName> = "APg2"
    <BdryType> = 5
    <A_0> = 0
    <A_1> = 0
    <A_2> = 0
    <Phi> = 0
    <c0> = 0
    <c0i> = 0
    <c1> = 0
    <c1i> = 0
    <Mu_ssd> = 0
    <Sigma_ssd> = 0
    <innerangle> = 0
    <outerangle> = 0
  <EndBdry>
  <BeginBdry>
    <BdryName> = "APg3"
    <BdryType> = 5
    <A_0> = 0
    <A_1> = 0
    <A_2> = 0
    <Phi> = 0
    <c0> = 0
    <c0i> = 0
    <c1> = 0
    <c1i> = 0
    <Mu_ssd> = 0
    <Sigma_ssd> = 0
    <innerangle> = 0
    <outerangle> = 0
  <EndBdry>
  <BeginBdry>
    <BdryName> = "APs1"
    <BdryType> = 5
    <A_0> = 0
    <A_1> = 0
    <A_2> = 0
    <Phi> = 0
    <c0> = 0
    <c0i> = 0
    <c1> = 0
    <c1i> = 0
    <Mu_ssd> = 0
    <Sigma_ssd> = 0
    <innerangle> = 0
    <outerangle> = 0
  <EndBdry>
  <BeginBdry>
    <BdryName> = "APs2"
    <BdryType> = 5
    <A_0> = 0
    <A_1> = 0
    <A_2> = 0
    <Phi> = 0
    <c0> = 0
    <c0i> = 0
    <c1> = 0
    <c1i> = 0
    <Mu_ssd> = 0
    <Sigma_ssd> = 0
    <innerangle> = 0
    <outerangle> = 0
  <EndBdry>
  <BeginBdry>
    <BdryName> = "APs3"
    <BdryType> = 5
    <A_0> = 0
    <A_1> = 0
    <A_2> = 0
    <Phi> = 0
    <c0> = 0
    <c0i> = 0
    <c1> = 0
    <c1i> = 0
    <Mu_ssd> = 0
    <Sigma_ssd> = 0
    <innerangle> = 0
    <outerangle> = 0
  <EndBdry>
  <BeginBdry>
    <BdryName> = "AGap"
    <BdryType> = 7
    <A_0> = 0
    <A_1> = 0
    <A_2> = 0
    <Phi> = 0
    <c0> = 0
    <c0i> = 0
    <c1> = 0
    <c1i> = 0
    <Mu_ssd> = 0
    <Sigma_ssd> = 0
    <innerangle> = 0
    <outerangle> = 0
  <EndBdry>
[BlockProps]  = 14
  <BeginBlock>
    <BlockName> = "M270-35A"
    <Mu_x> = 1
    <Mu_y> = 1
    <H_c> = 0
    <H_cAngle> = 0
    <J_re> = 0
    <J_im> = 0
    <Sigma> = 0
    <d_lam> = 0
    <Phi_h> = 0
    <Phi_hx> = 0
    <Phi_hy> = 0
    <LamType> = 0
    <LamFill> = 1
    <NStrands> = 0
    <WireD> = 0
    <BHPoints> = 200
      0	0
      0.0045422769999999999	3.2767874890000002
      0.0090353559999999996	6.114592773
      0.013222249	8.4602422570000009
      0.017196487	10.462328400000001
      0.020991169	12.199266809999999
      0.024640190999999999	13.72982376
      0.028168996000000002	15.09561901
      0.031597466999999997	16.327217480000002
      0.034941272000000002	17.447599879999999
      0.038212956999999999	18.47443998
      0.041422729999999998	19.421601849999998
      0.044579012000000001	20.300151339999999
      0.047688851999999997	21.119056130000001
      0.050758219	21.885681389999998
      0.053792226999999998	22.60614816
      0.056795300999999999	23.285597330000002
      0.059771310000000001	23.928387470000001
      0.062723663999999998	24.538245379999999
      0.065655396000000005	25.11838217
      0.068569221	25.67158405
      0.071467592999999996	26.200284
      0.074352739000000001	26.70661905
      0.077226698999999996	27.19247648
      0.080091349000000006	27.65953137
      0.082948429000000004	28.109277410000001
      0.085799557999999998	28.54305239
      0.088646256000000007	28.96205934
      0.091489953999999998	29.36738437
      0.094332005999999996	29.760011540000001
      0.097173704999999999	30.140835630000002
      0.100016285	30.510672870000001
      0.102860934	30.870270300000001
      0.105708802	31.220313650000001
      0.108561001	31.561434299999998
      0.11141862	31.894215259999999
      0.114282722	32.21919639
      0.117154355	32.536878999999999
      0.120034552	32.847729870000002
      0.12292433699999999	33.152184810000001
      0.12582473199999999	33.45065185
      0.12873675200000001	33.743513989999997
      0.13166142	34.031131799999997
      0.13459976100000001	34.313845620000002
      0.137552811	34.591977620000002
      0.14052161499999999	34.865833639999998
      0.14350723800000001	35.135704879999999
      0.14651076099999999	35.401869419999997
      0.14953328699999999	35.664593680000003
      0.15257594699999999	35.924133650000002
      0.155639899	36.180736189999998
      0.158726334	36.434640119999997
      0.161836481	36.686077320000003
      0.16497160599999999	36.93527375
      0.16813302299999999	37.182450420000002
      0.17132209400000001	37.427824389999998
      0.17454023399999999	37.671609650000001
      0.17778891699999999	37.914018050000003
      0.18106968000000001	38.155260249999998
      0.18438413100000001	38.395546590000002
      0.18773395400000001	38.635088090000004
      0.191120915	38.87409736
      0.19454686800000001	39.112789630000002
      0.19801376800000001	39.351383830000003
      0.20152367299999999	39.590103640000002
      0.20507876	39.829178749999997
      0.208681327	40.068846100000002
      0.21233381500000001	40.309351300000003
      0.216038808	40.550950149999998
      0.21979905799999999	40.793910310000001
      0.22361749	41.038513199999997
      0.227497227	41.285056060000002
      0.2314416	41.53385428
      0.23545417299999999	41.785244059999997
      0.23953876299999999	42.039585369999998
      0.24369946200000001	42.297265359999997
      0.247940667	42.558702250000003
      0.25226710400000002	42.824349750000003
      0.25668386300000001	43.0947022
      0.26119642799999998	43.370300520000001
      0.26581071499999998	43.651739030000002
      0.27054201700000002	43.94020278
      0.275438138	44.23873004
      0.28051031599999998	44.548036490000001
      0.28576849199999999	44.868763260000001
      0.29122336399999998	45.201605100000002
      0.296886504	45.547319020000003
      0.30277045699999999	45.906731970000003
      0.30888884599999999	46.280749559999997
      0.31525650100000002	46.670366299999998
      0.321889598	47.076677459999999
      0.328805825	47.50089294
      0.33602457000000002	47.944353649999996
      0.34356714500000002	48.408550759999997
      0.351457032	48.895148689999999
      0.35972019	49.406012390000001
      0.36838539799999998	49.943240269999997
      0.37748466600000002	50.509203810000002
      0.38705371900000002	51.106595769999998
      0.39713256899999999	51.738489119999997
      0.40776619800000002	52.408409570000003
      0.41900536300000002	53.120425429999997
      0.43090757000000002	53.879259759999997
      0.44353822799999998	54.690431349999997
      0.45697202599999998	55.560433060000001
      0.47129457299999999	56.49695913
      0.486604327	57.509196449999997
      0.503014823	58.60819978
      0.520657166	59.807376320000003
      0.53968265500000001	61.123111049999999
      0.56026517099999995	62.575567960000001
      0.58260257699999995	64.189698669999999
      0.60691558199999995	65.996464399999994
      0.63344113800000001	68.034201780000004
      0.662415215	70.349880479999996
      0.69403682899999997	72.999622560000006
      0.72840307800000004	76.047204840000006
      0.76540934699999996	79.558509650000005
      0.80463064699999998	83.589963030000007
      0.84524547999999999	88.171938179999998
      0.88609953900000005	93.294734669999997
      0.92594964300000004	98.90894376
      0.963771241	104.9435902
      0.99893980100000002	111.3300564
      1.0312218310000001	118.0174305
      1.0606584889999999	124.9760964
      1.0874410889999999	132.19454709999999
      1.1118223309999999	139.6744898
      1.1340651580000001	147.42664859999999
      1.1544176930000001	155.46782519999999
      1.173103241	163.8190534
      1.1903180360000001	172.50453999999999
      1.2062325739999999	181.55112829999999
      1.220994358	190.98810510000001
      1.234730984	200.84723579999999
      1.2475531	211.16296399999999
      1.2595570490000001	221.97273730000001
      1.270827143	233.31744900000001
      1.281437594	245.2419931
      1.291454146	257.79594609999998
      1.3009354369999999	271.03439809999998
      1.309934159	285.01896390000002
      1.318498043	299.81902289999999
      1.326670706	315.51324579999999
      1.3344924010000001	332.19149570000002
      1.3420006879999999	349.95721329999998
      1.3492310569999999	368.93044570000001
      1.356217531	389.25173360000002
      1.362993272	411.08716509999999
      1.3695912379999999	434.63503709999998
      1.3760449050000001	460.1347695
      1.382389146	487.87903890000001
      1.3886613240000001	518.23060969999995
      1.394902732	551.64618570000005
      1.401160583	588.71104339999999
      1.4074908660000001	630.19074279999995
      1.4139626249999999	677.11087850000001
      1.420664664	730.8848299
      1.4277165590000001	793.52783980000004
      1.435287779	868.03580320000003
      1.4436331710000001	959.10175079999999
      1.453164339	1074.5891859999999
      1.464608755	1228.9034079999999
      1.479413587	1451.8548430000001
      1.5007295060000001	1812.597843
      1.531321148	2396.2922779999999
      1.5749716949999999	3340.7297119999998
      1.6351726849999999	4868.8615820000005
      1.6746062129999999	6056.7860730000002
      1.7053540309999999	7126.7301200000002
      1.7307497590000001	8135.9466300000004
      1.752580204	9119.3875740000003
      1.771845345	10098.25848
      1.789165838	11087.22133
      1.804957089	12097.58993
      1.819514077	13138.977849999999
      1.8330565510000001	14220.25051
      1.845754994	15350.15127
      1.8577465099999999	16537.778849999999
      1.869145125	17793.012470000001
      1.8800488470000001	19126.948680000001
      1.8905448170000001	20552.403480000001
      1.9007133519999999	22084.53774
      1.9106314310000001	23741.68173
      1.920376064	25546.46932
      1.930027954	27527.455720000002
      1.9396760099999999	29721.505959999999
      1.9494234969999999	32177.45292
      1.959397184	34961.935420000002
      1.969762051	38169.180130000001
      1.980746793	41938.394229999998
      1.9926918389999999	46487.096960000003
      2.0061495709999999	52181.595710000001
      2.022124024	59707.652569999998
      2.042772002	70576.241299999994
      2.0725625070000002	88161.987269999998
      2.1158769670000002	116616.322
      2.1803765140000002	162656.4026
      2.2792825830000001	237150.818
      2.3747656959999999	310949.48619999998
  <EndBlock>
  <BeginBlock>
    <BlockName> = "M250-35A"
    <Mu_x> = 1
    <Mu_y> = 1
    <H_c> = 0
    <H_cAngle> = 0
    <J_re> = 0
    <J_im> = 0
    <Sigma> = 0
    <d_lam> = 0
    <Phi_h> = 0
    <Phi_hx> = 0
    <Phi_hy> = 0
    <LamType> = 0
    <LamFill> = 1
    <NStrands> = 0
    <WireD> = 0
    <BHPoints> = 200
      0	0
      0.0042969999999999996	2.893046
      0.0085299999999999994	5.3886940000000001
      0.012479000000000001	7.4534830000000003
      0.016226999999999998	9.215719
      0.019806000000000001	10.744738999999999
      0.023247	12.092207999999999
      0.026575999999999999	13.294746
      0.02981	14.379244
      0.032964	15.365919999999999
      0.036049999999999999	16.270323000000001
      0.039079000000000003	17.104651
      0.042056999999999997	17.878640000000001
      0.044991000000000003	18.600180000000002
      0.047888	19.275749999999999
      0.050750999999999998	19.910734999999999
      0.053586000000000002	20.50966
      0.056395000000000001	21.076357999999999
      0.059182999999999999	21.61411
      0.061950999999999999	22.12574
      0.064701999999999996	22.613700000000001
      0.067438999999999999	23.080131999999999
      0.070165000000000005	23.526914999999999
      0.072878999999999999	23.955711999999998
      0.075586	24.367995000000001
      0.078285999999999994	24.765082
      0.080979999999999996	25.148147999999999
      0.083670999999999995	25.518253999999999
      0.086359000000000005	25.876356000000001
      0.089046	26.223320999999999
      0.091732999999999995	26.559937000000001
      0.094421000000000005	26.886922999999999
      0.097112000000000004	27.204939
      0.099807000000000007	27.514588
      0.102506	27.816427999999998
      0.10521	28.110973000000001
      0.107921	28.398700999999999
      0.11064	28.680053000000001
      0.113368	28.955442000000001
      0.116105	29.225254
      0.118853	29.489851000000002
      0.121613	29.749571
      0.124385	30.004733999999999
      0.12717100000000001	30.255642000000002
      0.129972	30.502582
      0.13278799999999999	30.745826000000001
      0.13562199999999999	30.985634000000001
      0.13847200000000001	31.222252999999998
      0.141342	31.455922000000001
      0.144232	31.686869999999999
      0.147143	31.915319
      0.15007599999999999	32.141483999999998
      0.153033	32.365572999999998
      0.15601499999999999	32.587792
      0.159023	32.808340000000001
      0.16205800000000001	33.027416000000002
      0.16512199999999999	33.245213999999997
      0.16821700000000001	33.461928999999998
      0.171344	33.677753000000003
      0.17450399999999999	33.892882
      0.177699	34.107511000000002
      0.18093200000000001	34.321838
      0.18420300000000001	34.536062999999999
      0.18751599999999999	34.750393000000003
      0.19087100000000001	34.965038
      0.194272	35.180216000000001
      0.19772000000000001	35.396152000000001
      0.20121800000000001	35.613083000000003
      0.20476900000000001	35.831254000000001
      0.20837600000000001	36.050924000000002
      0.21204100000000001	36.272367000000003
      0.21576799999999999	36.495873000000003
      0.21956000000000001	36.721752000000002
      0.22342100000000001	36.950336999999998
      0.227355	37.181984999999997
      0.23136599999999999	37.417082000000001
      0.235459	37.65605
      0.23963899999999999	37.899346999999999
      0.24391099999999999	38.147472999999998
      0.24828	38.400982999999997
      0.25276999999999999	38.661422999999999
      0.25742100000000001	38.931215000000002
      0.262243	39.210946
      0.26724500000000001	39.501213999999997
      0.27243800000000001	39.802667
      0.27783400000000003	40.116010000000003
      0.28344399999999997	40.442014
      0.28928300000000001	40.781525999999999
      0.29536499999999999	41.135472999999998
      0.301705	41.504877
      0.30832300000000001	41.890867
      0.31523600000000002	42.294696999999999
      0.322467	42.717756999999999
      0.33003700000000002	43.161602999999999
      0.33797500000000003	43.627975999999997
      0.34630699999999998	44.118836999999999
      0.35506599999999999	44.636400999999999
      0.364288	45.183185000000002
      0.37401400000000001	45.762059999999998
      0.38428699999999999	46.376323999999997
      0.39515899999999998	47.029781
      0.40668900000000002	47.726851000000003
      0.41894199999999998	48.472701999999998
      0.43199399999999999	49.273418999999997
      0.445932	50.136220999999999
      0.46085599999999999	51.069738999999998
      0.476883	52.084378000000001
      0.494149	53.192788
      0.51280899999999996	54.410476000000003
      0.53304799999999997	55.756604000000003
      0.55507300000000004	57.255007999999997
      0.57912399999999997	58.935468
      0.60546199999999994	60.835194000000001
      0.63435799999999998	63.000315999999998
      0.66605599999999998	65.486806000000001
      0.70070900000000003	68.359548000000004
      0.73826899999999995	71.687292999999997
      0.77834099999999995	75.530902999999995
      0.82007600000000003	79.925031000000004
      0.86221800000000004	84.861114000000001
      0.90337299999999998	90.286100000000005
      0.942384	96.122534999999999
      0.97855499999999995	102.296091
      1.0116430000000001	108.752764
      1.0417110000000001	115.462129
      1.068983	122.413082
      1.0937460000000001	129.608115
      1.116287	137.05868100000001
      1.136876	144.78209200000001
      1.155751	152.799633
      1.1731199999999999	161.135536
      1.1891620000000001	169.816473
      1.2040310000000001	178.871407
      1.2178599999999999	188.33166199999999
      1.2307619999999999	198.231143
      1.2428380000000001	208.606694
      1.254173	219.49855400000001
      1.2648440000000001	230.95093399999999
      1.274918	243.01271700000001
      1.2844549999999999	255.738317
      1.2935080000000001	269.188714
      1.302127	283.43273799999997
      1.3103549999999999	298.54864300000003
      1.318235	314.626081
      1.3258030000000001	331.76858900000002
      1.3330979999999999	350.09676100000001
      1.3401540000000001	369.75233600000001
      1.3470040000000001	390.90355799999998
      1.353685	413.752275
      1.3602300000000001	438.54351500000001
      1.366676	465.57863900000001
      1.373065	495.23374999999999
      1.3794390000000001	527.98607000000004
      1.3858520000000001	564.452719
      1.3923669999999999	605.44946300000004
      1.39906	652.08284800000001
      1.406037	705.90077199999996
      1.4134370000000001	769.15093100000001
      1.421468	845.25171799999998
      1.4304490000000001	939.71601999999996
      1.4409160000000001	1062.1409619999999
      1.453867	1231.0420779999999
      1.4714210000000001	1487.5809200000001
      1.496648	1902.669486
      1.532797	2574.2968930000002
      1.5838000000000001	3661.012866
      1.6353310000000001	4953.8388219999997
      1.6706399999999999	5994.5159130000002
      1.69892	6952.5419910000001
      1.7226760000000001	7868.8254299999999
      1.7433129999999999	8769.296902
      1.7616510000000001	9670.4657779999998
      1.7782150000000001	10584.19298
      1.7933669999999999	11519.91821
      1.807366	12485.85331
      1.8204100000000001	13489.697770000001
      1.8326530000000001	14539.126319999999
      1.8442210000000001	15642.17215
      1.8552169999999999	16807.57634
      1.865734	18045.151389999999
      1.87585	19366.200540000002
      1.88564	20784.038649999999
      1.895176	22314.674029999998
      1.9045259999999999	23977.737270000001
      1.9137649999999999	25797.790300000001
      1.9229700000000001	27806.231749999999
      1.9322319999999999	30044.16647
      1.9416610000000001	32566.893940000002
      1.9513929999999999	35451.247199999998
      1.9616150000000001	38808.250959999998
      1.972596	42806.453809999999
      1.9847520000000001	47718.772470000004
      1.9987980000000001	54027.979319999999
      2.0161340000000001	62706.530469999998
      2.0401699999999998	76177.004910000003
      2.074945	97972.690400000007
      2.1261130000000001	133238.85029999999
      2.203535	190300.69570000001
      2.3041860000000001	267332.391
      2.3975240000000002	339990.4999
  <EndBlock>
  <BeginBlock>
    <BlockName> = "ShaftAir"
    <Mu_x> = 1
    <Mu_y> = 1
    <H_c> = 0
    <H_cAngle> = 0
    <J_re> = 0
    <J_im> = 0
    <Sigma> = 0
    <d_lam> = 0
    <Phi_h> = 0
    <Phi_hx> = 0
    <Phi_hy> = 0
    <LamType> = 0
    <LamFill> = 1
    <NStrands> = 0
    <WireD> = 0
    <BHPoints> = 3
      -100	-7.9577471545947675e-011
      0	0
      100	7.9577471545947675e-011
  <EndBlock>
  <BeginBlock>
    <BlockName> = "Copper"
    <Mu_x> = 1
    <Mu_y> = 1
    <H_c> = 0
    <H_cAngle> = 0
    <J_re> = 0
    <J_im> = 0
    <Sigma> = 58
    <d_lam> = 0
    <Phi_h> = 0
    <Phi_hx> = 0
    <Phi_hy> = 0
    <LamType> = 0
    <LamFill> = 1
    <NStrands> = 0
    <WireD> = 0
    <BHPoints> = 0
  <EndBlock>
  <BeginBlock>
    <BlockName> = "Aluminium"
    <Mu_x> = 1
    <Mu_y> = 1
    <H_c> = 0
    <H_cAngle> = 0
    <J_re> = 0
    <J_im> = 0
    <Sigma> = 29
    <d_lam> = 0
    <Phi_h> = 0
    <Phi_hx> = 0
    <Phi_hy> = 0
    <LamType> = 0
    <LamFill> = 1
    <NStrands> = 0
    <WireD> = 0
    <BHPoints> = 0
  <EndBlock>
  <BeginBlock>
    <BlockName> = "BMNpi-48/54"
    <Mu_x> = 1.415
    <Mu_y> = 1.415
    <H_c> = 348678.67391157284
    <H_cAngle> = 0
    <J_re> = 0
    <J_im> = 0
    <Sigma> = 0.5
    <d_lam> = 0
    <Phi_h> = 0
    <Phi_hx> = 0
    <Phi_hy> = 0
    <LamType> = 0
    <LamFill> = 1
    <NStrands> = 0
    <WireD> = 0
    <BHPoints> = 0
  <EndBlock>
  <BeginBlock>
    <BlockName> = "DW235"
    <Mu_x> = 1
    <Mu_y> = 1
    <H_c> = 0
    <H_cAngle> = 0
    <J_re> = 0
    <J_im> = 0
    <Sigma> = 0
    <d_lam> = 0
    <Phi_h> = 0
    <Phi_hx> = 0
    <Phi_hy> = 0
    <LamType> = 0
    <LamFill> = 1
    <NStrands> = 0
    <WireD> = 0
    <BHPoints> = 0
  <EndBlock>
  <BeginBlock>
    <BlockName> = "Air"
    <Mu_x> = 1
    <Mu_y> = 1
    <H_c> = 0
    <H_cAngle> = 0
    <J_re> = 0
    <J_im> = 0
    <Sigma> = 0
    <d_lam> = 0
    <Phi_h> = 0
    <Phi_hx> = 0
    <Phi_hy> = 0
    <LamType> = 0
    <LamFill> = 1
    <NStrands> = 0
    <WireD> = 0
    <BHPoints> = 0
  <EndBlock>
  <BeginBlock>
    <BlockName> = "BMNpi-48/54_1"
    <Mu_x> = 1.415
    <Mu_y> = 1.415
    <H_c> = 348678.67391157284
    <H_cAngle> = 0
    <J_re> = 0
    <J_im> = 0
    <Sigma> = 0.5
    <d_lam> = 0
    <Phi_h> = 0
    <Phi_hx> = 0
    <Phi_hy> = 0
    <LamType> = 0
    <LamFill> = 1
    <NStrands> = 0
    <WireD> = 0
    <BHPoints> = 0
  <EndBlock>
  <BeginBlock>
    <BlockName> = "BMNpi-48/54_2"
    <Mu_x> = 1.415
    <Mu_y> = 1.415
    <H_c> = 348678.67391157284
    <H_cAngle> = 0
    <J_re> = 0
    <J_im> = 0
    <Sigma> = 0.5
    <d_lam> = 0
    <Phi_h> = 0
    <Phi_hx> = 0
    <Phi_hy> = 0
    <LamType> = 0
    <LamFill> = 1
    <NStrands> = 0
    <WireD> = 0
    <BHPoints> = 0
  <EndBlock>
  <BeginBlock>
    <BlockName> = "BMNpi-48/54_3"
    <Mu_x> = 1.415
    <Mu_y> = 1.415
    <H_c> = 348678.67391157284
    <H_cAngle> = 0
    <J_re> = 0
    <J_im> = 0
    <Sigma> = 0.5
    <d_lam> = 0
    <Phi_h> = 0
    <Phi_hx> = 0
    <Phi_hy> = 0
    <LamType> = 0
    <LamFill> = 1
    <NStrands> = 0
    <WireD> = 0
    <BHPoints> = 0
  <EndBlock>
  <BeginBlock>
    <BlockName> = "BMNpi-48/54_4"
    <Mu_x> = 1.415
    <Mu_y> = 1.415
    <H_c> = 348678.67391157284
    <H_cAngle> = 0
    <J_re> = 0
    <J_im> = 0
    <Sigma> = 0.5
    <d_lam> = 0
    <Phi_h> = 0
    <Phi_hx> = 0
    <Phi_hy> = 0
    <LamType> = 0
    <LamFill> = 1
    <NStrands> = 0
    <WireD> = 0
    <BHPoints> = 0
  <EndBlock>
  <BeginBlock>
    <BlockName> = "BMNpi-48/54_5"
    <Mu_x> = 1.415
    <Mu_y> = 1.415
    <H_c> = 348678.67391157284
    <H_cAngle> = 0
    <J_re> = 0
    <J_im> = 0
    <Sigma> = 0.5
    <d_lam> = 0
    <Phi_h> = 0
    <Phi_hx> = 0
    <Phi_hy> = 0
    <LamType> = 0
    <LamFill> = 1
    <NStrands> = 0
    <WireD> = 0
    <BHPoints> = 0
  <EndBlock>
  <BeginBlock>
    <BlockName> = "BMNpi-48/54_6"
    <Mu_x> = 1.415
    <Mu_y> = 1.415
    <H_c> = 348678.67391157284
    <H_cAngle> = 0
    <J_re> = 0
    <J_im> = 0
    <Sigma> = 0.5
    <d_lam> = 0
    <Phi_h> = 0
    <Phi_hx> = 0
    <Phi_hy> = 0
    <LamType> = 0
    <LamFill> = 1
    <NStrands> = 0
    <WireD> = 0
    <BHPoints> = 0
  <EndBlock>
[CircuitProps]  = 6
  <BeginCircuit>
    <CircuitName> = "fase1"
    <TotalAmps_re> = 0
    <TotalAmps_im> = 0
    <CircuitType> = 1
  <EndCircuit>
  <BeginCircuit>
    <CircuitName> = "fase2"
    <TotalAmps_re> = 0
    <TotalAmps_im> = 0
    <CircuitType> = 1
  <EndCircuit>
  <BeginCircuit>
    <CircuitName> = "fase3"
    <TotalAmps_re> = 0
    <TotalAmps_im> = 0
    <CircuitType> = 1
  <EndCircuit>
  <BeginCircuit>
    <CircuitName> = "fase1n"
    <TotalAmps_re> = 0
    <TotalAmps_im> = 0
    <CircuitType> = 1
  <EndCircuit>
  <BeginCircuit>
    <CircuitName> = "fase2n"
    <TotalAmps_re> = 0
    <TotalAmps_im> = 0
    <CircuitType> = 1
  <EndCircuit>
  <BeginCircuit>
    <CircuitName> = "fase3n"
    <TotalAmps_re> = 0
    <TotalAmps_im> = 0
    <CircuitType> = 1
  <EndCircuit>
[NumPoints] = 245
722.81648566466026	49.774191514145663	0	2
723.438063370338	37.91378235006345	0	2
730.37860876599336	50.569002679696197	0	2
733.03255202267894	53.742698807543924	0	2
729.95789038268492	56.313826350073867	0	2
716.78064483419826	54.928842033792137	0	2
717.68815887243113	37.612442624238582	0	2
700.16674238968142	38.715645141318042	0	2
701.21770788067897	37.769351562806406	0	2
711.03969694575619	38.284100197849419	0	2
711.98599052426778	39.335065688846939	0	2
710.903522768622	59.989780894382811	0	2
725.50583342575123	61.524545589112222	0	2
731.74067787058425	69.141741007135792	0	2
726.39352276126101	73.518506798126879	0	2
698.49646648253554	70.586408031787897	0	2
717.06658116675339	49.472851788320796	0	2
699.08427463403564	59.370360346853914	0	2
711.89804466399028	60.094309357650474	0	2
710.66090135759782	71.864941656770441	0	2
725.25447371878624	61.498126619335061	0	2
724.01733041239379	73.268758918455035	0	2
724.05964107601574	26.053373185981236	0	2
731.66341846548482	26.053373185981233	0	2
734.63456472244604	23.174475507812055	0	2
731.84550241150885	20.296043214685017	0	2
718.59567291066401	20.296043214685024	0	2
701.32433618476489	35.734762317760826	0	2
700.37804260625342	34.683796826763306	0	2
711.14632524984211	36.249510952803838	0	2
712.19729074083978	35.303217374292203	0	2
713.27975849648556	14.64850216875633	0	2
727.96250276298747	14.648502168756327	0	2
734.95940580904448	7.7247532527642626	0	2
730.09903957710708	2.8130339362934507	0	2
702.04831851339929	2.8130339362934578	0	2
718.30973657810887	25.752033460156369	0	2
701.4605103618992	14.029081621227434	0	2
714.27975849648556	14.648502168756327	0	2
714.27975849648556	2.8130339362934507	0	2
727.70975849648551	14.64850216875633	0	2
727.70975849648551	2.8130339362934436	0	2
736	0	0	20
424.92000000000002	0	0	2
731.96811499104911	76.932948964992946	0	20
422.5922437798867	44.416234611691308	0	2
0	0	0	2
800	0	0	1
737	0	0	20
795.61751629461867	83.622770614122771	0	1
732.96263688641739	77.037477428260601	0	20
744.0996385181304	4.1311124898957923	0	1
744.10349715093287	3.2467846049804288	0	1
744.29934159167692	4.8896378964097407	0	1
787.47427986750301	5.2664198746170463	0	1
787.71704878865989	5.0270865776318452	0	1
787.72583467974664	3.4371241672376991	0	1
787.73092398661515	1.8471456273497704	0	1
787.49025285986693	1.6057029118347832	0	1
744.31367055208693	1.605702911834783	0	1
744.10735578373533	2.3624567200650652	0	1
765.92117728913502	1.6057029118347834	0	1
765.90602558107742	5.0781965709819428	0	1
736.9885950996719	4.1000845127598167	0	1
736.99631236527682	2.3314287429290896	0	1
744.03525518415347	10.624367099646292	0	1
744.04683078871096	9.7401065597231788	0	1
744.22833135473263	11.38460633979745	0	1
787.39833765989658	12.13814160280565	0	1
787.64318588766889	11.900935950507417	0	1
787.66584630763123	10.311110751400395	0	1
787.68481042488452	8.721237165040348	0	1
787.44625542058304	8.4777034177931441	0	1
744.27131714475695	8.1009214395858375	0	1
744.05840639326846	8.855846019800067	0	1
765.87800113415756	8.2894801141580423	0	1
765.83254716384613	11.761709329468751	0	1
736.92475329918284	10.531285531138954	0	1
736.94790450829782	8.7627644512927283	0	1
743.91421068484476	17.116812622708242	0	1
743.93350237963011	16.232686767641049	0	1
744.10064524895847	17.878707801335089	0	1
787.26243202034073	19.008938964516474	0	1
787.509340908588	18.773879021034009	0	1
787.54587413174704	17.184312104558281	0	1
787.57871161519427	15.594664546755165	0	1
787.34229090022689	15.349058313813476	0	1
744.17228459506282	14.595523050805276	0	1
743.95279407441546	15.348560912573857	0	1
765.77650040417655	14.97262604047658	0	1
765.70074763310708	18.444326388252811	0	1
736.80479182560987	16.961684551351361	0	1
736.84337521518057	15.19343284121698	0	1
743.73651423821138	23.60795463421854	0	1
743.76352055408745	22.724030793614165	0	1
743.91629299814576	24.371447730053418	0	1
787.06657329857603	25.878288721929049	0	1
787.31552404423041	25.645392387987126	0	1
787.36592728844005	24.056204805817639	0	1
787.41263563737948	22.46690433438755	0	1
787.17836721609888	22.219244319616916	0	1
744.01658044471651	21.089013156435531	0	1
743.7905268699634	21.840106953009787	0	1
765.61668282886535	21.65463174335326	0	1
765.51063702590477	25.125538840172293	0	1
736.6287198144837	23.39079187361536	0	1
736.6827324462356	21.622944192406607	0	1
743.50217937652576	30.097298808581527	0	1
743.53689825685694	29.213644296662679	0	1
743.6752886414323	30.862331678669214	0	1
786.81077641000252	32.745667747463578	0	1
787.06175005450098	32.514952759019721	0	1
787.12601948135887	30.926265533943649	0	1
787.18659513876912	29.337433180270711	0	1
786.95449685162248	29.087738243940116	0	1
743.80421655119221	27.580897252064485	0	1
743.57161713718813	28.329989784743834	0	1
765.39856057895133	28.334988362183363	0	1
765.26222981989804	31.804837885031613	0	1
736.39655067436956	29.818117896517041	0	1
736.46598843503182	28.050808872679347	0	1
743.21122394529493	36.584350957113813	0	1
743.25365274610397	35.701033067592789	0	1
743.37765053223279	37.350865341239299	0	1
786.49506083454366	39.610553063619143	0	1
786.74803826527136	39.382036990512958	0	1
786.82616898041192	37.793971107213338	0	1
786.90060733322196	36.205727867032707	0	1
786.67069685539263	35.954017024378281	0	1
743.53520908682231	34.070680955583917	0	1
743.29608154691323	34.817715178071758	0	1