[Format]      =  4.0
[Frequency]   =  0
[Precision]   =  1e-008
[MinAngle]    =  15
[DoSmartMesh] =  1
[Depth]       =  300
[LengthUnits] =  millimeters
[ProblemType] =  planar
[Coordinates] =  cartesian
[ACSolver]    =  0
[PrevType]    =  0
[PrevSoln]    =  ""
[Comment]     =  "Add comments here."
[PointProps]   = 0
[BdryProps]   = 11
  <BeginBdry>
    <BdryName> = "A=0"
    <BdryType> = 0
    <A_0> = 0
    <A_1> = 0
    <A_2> = 0
    <Phi> = 0
    <c0> = 0
    <c0i> = 0
    <c1> = 0
    <c1i> = 0
    <Mu_ssd> = 0
    <Sigma_ssd> = 0
    <innerangle> = 0
    <outerangle> = 0
  <EndBdry>
  <BeginBdry>
    <BdryName> = "APr1"
    <BdryType> = 5
    <A_0> = 0
    <A_1> = 0
    <A_2> = 0
    <Phi> = 0
    <c0> = 0
    <c0i> = 0
    <c1> = 0
    <c1i> = 0
    <Mu_ssd> = 0
    <Sigma_ssd> = 0
    <innerangle> = 0
    <outerangle> = 0
  <EndBdry>
  <BeginBdry>
    <BdryName> = "APr2"
    <BdryType> = 5
    <A_0> = 0
    <A_1> = 0
    <A_2> = 0
    <Phi> = 0
    <c0> = 0
    <c0i> = 0
    <c1> = 0
    <c1i> = 0
    <Mu_ssd> = 0
    <Sigma_ssd> = 0
    <innerangle> = 0
    <outerangle> = 0
  <EndBdry>
  <BeginBdry>
    <BdryName> = "APr3"
    <BdryType> = 5
    <A_0> = 0
    <A_1> = 0
    <A_2> = 0
    <Phi> = 0
    <c0> = 0
    <c0i> = 0
    <c1> = 0
    <c1i> = 0
    <Mu_ssd> = 0
    <Sigma_ssd> = 0
    <innerangle> = 0
    <outerangle> = 0
  <EndBdry>
  <BeginBdry>
    <BdryName> = "APg1"
    <BdryType> = 5
    <A_0> = 0
    <A_1> = 0
    <A_2> = 0
    <Phi> = 0
    <c0> = 0
    <c0i> = 0
    <c1> = 0
    <c1i> = 0
    <Mu_ssd> = 0
    <Sigma_ssd> = 0
    <innerangle> = 0
    <outerangle> = 0
  <EndBdry>
  <BeginBdry>
    <BdryName> = "APg2"
    <BdryType> = 5
    <A_0> = 0
    <A_1> = 0
    <A_2> = 0
    <Phi> = 0
    <c0> = 0
    <c0i> = 0
    <c1> = 0
    <c1i> = 0
    <Mu_ssd> = 0
    <Sigma_ssd> = 0
    <innerangle> = 0
    <outerangle> = 0
  <EndBdry>
  <BeginBdry>
    <BdryName> = "APg3"
    <BdryType> = 5
    <A_0> = 0
    <A_1> = 0
    <A_2> = 0
    <Phi> = 0
    <c0> = 0
    <c0i> = 0
    <c1> = 0
    <c1i> = 0
    <Mu_ssd> = 0
    <Sigma_ssd> = 0
    <innerangle> = 0
    <outerangle> = 0
  <EndBdry>
  <BeginBdry>
    <BdryName> = "APs1"
    <BdryType> = 5
    <A_0> = 0
    <A_1> = 0
    <A_2> = 0
    <Phi> = 0
    <c0> = 0
    <c0i> = 0
    <c1> = 0
    <c1i> = 0
    <Mu_ssd> = 0
    <Sigma_ssd> = 0
    <innerangle> = 0
    <outerangle> = 0
  <EndBdry>
  <BeginBdry>
    <BdryName> = "APs2"
    <BdryType> = 5
    <A_0> = 0
    <A_1> = 0
    <A_2> = 0
    <Phi> = 0
    <c0> = 0
    <c0i> = 0
    <c1> = 0
    <c1i> = 0
    <Mu_ssd> = 0
    <Sigma_ssd> = 0
    <innerangle> = 0
    <outerangle> = 0
  <EndBdry>
  <BeginBdry>
    <BdryName> = "APs3"
    <BdryType> = 5
    <A_0> = 0
    <A_1> = 0
    <A_2> = 0
    <Phi> = 0
    <c0> = 0
    <c0i> = 0
    <c1> = 0
    <c1i> = 0
    <Mu_ssd> = 0
    <Sigma_ssd> = 0
    <innerangle> = 0
    <outerangle> = 0
  <EndBdry>
  <BeginBdry>
    <BdryName> = "AGap"
    <BdryType> = 7
    <A_0> = 0
    <A_1> = 0
    <A_2> = 0
    <Phi> = 0
    <c0> = 0
    <c0i> = 0
    <c1> = 0
    <c1i> = 0
    <Mu_ssd> = 0
    <Sigma_ssd> = 0
    <innerangle> = 0
    <outerangle> = 0
  <EndBdry>
[BlockProps]  = 15
  <BeginBlock>
    <BlockName> = "M270-35A"
    <Mu_x> = 1
    <Mu_y> = 1
    <H_c> = 0
    <H_cAngle> = 0
    <J_re> = 0
    <J_im> = 0
    <Sigma> = 0
    <d_lam> = 0
    <Phi_h> = 0
    <Phi_hx> = 0
    <Phi_hy> = 0
    <LamType> = 0
    <LamFill> = 1
    <NStrands> = 0
    <WireD> = 0
    <BHPoints> = 200
      0	0
      0.0045422769999999999	3.2767874890000002
      0.0090353559999999996	6.114592773
      0.013222249	8.4602422570000009
      0.017196487	10.462328400000001
      0.020991169	12.199266809999999
      0.024640190999999999	13.72982376
      0.028168996000000002	15.09561901
      0.031597466999999997	16.327217480000002
      0.034941272000000002	17.447599879999999
      0.038212956999999999	18.47443998
      0.041422729999999998	19.421601849999998
      0.044579012000000001	20.300151339999999
      0.047688851999999997	21.119056130000001
      0.050758219	21.885681389999998
      0.053792226999999998	22.60614816
      0.056795300999999999	23.285597330000002
      0.059771310000000001	23.928387470000001
      0.062723663999999998	24.538245379999999
      0.065655396000000005	25.11838217
      0.068569221	25.67158405
      0.071467592999999996	26.200284
      0.074352739000000001	26.70661905
      0.077226698999999996	27.19247648
      0.080091349000000006	27.65953137
      0.082948429000000004	28.109277410000001
      0.085799557999999998	28.54305239
      0.088646256000000007	28.96205934
      0.091489953999999998	29.36738437
      0.094332005999999996	29.760011540000001
      0.097173704999999999	30.140835630000002
      0.100016285	30.510672870000001
      0.102860934	30.870270300000001
      0.105708802	31.220313650000001
      0.108561001	31.561434299999998
      0.11141862	31.894215259999999
      0.114282722	32.21919639
      0.117154355	32.536878999999999
      0.120034552	32.847729870000002
      0.12292433699999999	33.152184810000001
      0.12582473199999999	33.45065185
      0.12873675200000001	33.743513989999997
      0.13166142	34.031131799999997
      0.13459976100000001	34.313845620000002
      0.137552811	34.591977620000002
      0.14052161499999999	34.865833639999998
      0.14350723800000001	35.135704879999999
      0.14651076099999999	35.401869419999997
      0.14953328699999999	35.664593680000003
      0.15257594699999999	35.924133650000002
      0.155639899	36.180736189999998
      0.158726334	36.434640119999997
      0.161836481	36.686077320000003
      0.16497160599999999	36.93527375
      0.16813302299999999	37.182450420000002
      0.17132209400000001	37.427824389999998
      0.17454023399999999	37.671609650000001
      0.17778891699999999	37.914018050000003
      0.18106968000000001	38.155260249999998
      0.18438413100000001	38.395546590000002
      0.18773395400000001	38.635088090000004
      0.191120915	38.87409736
      0.19454686800000001	39.112789630000002
      0.19801376800000001	39.351383830000003
      0.20152367299999999	39.590103640000002
      0.20507876	39.829178749999997
      0.208681327	40.068846100000002
      0.21233381500000001	40.309351300000003
      0.216038808	40.550950149999998
      0.21979905799999999	40.793910310000001
      0.22361749	41.038513199999997
      0.227497227	41.285056060000002
      0.2314416	41.53385428
      0.23545417299999999	41.785244059999997
      0.23953876299999999	42.039585369999998
      0.24369946200000001	42.297265359999997
      0.247940667	42.558702250000003
      0.25226710400000002	42.824349750000003
      0.25668386300000001	43.0947022
      0.26119642799999998	43.370300520000001
      0.26581071499999998	43.651739030000002
      0.27054201700000002	43.94020278
      0.275438138	44.23873004
      0.28051031599999998	44.548036490000001
      0.28576849199999999	44.868763260000001
      0.29122336399999998	45.201605100000002
      0.296886504	45.547319020000003
      0.30277045699999999	45.906731970000003
      0.30888884599999999	46.280749559999997
      0.31525650100000002	46.670366299999998
      0.321889598	47.076677459999999
      0.328805825	47.50089294
      0.33602457000000002	47.944353649999996
      0.34356714500000002	48.408550759999997
      0.351457032	48.895148689999999
      0.35972019	49.406012390000001
      0.36838539799999998	49.943240269999997
      0.37748466600000002	50.509203810000002
      0.38705371900000002	51.106595769999998
      0.39713256899999999	51.738489119999997
      0.40776619800000002	52.408409570000003
      0.41900536300000002	53.120425429999997
      0.43090757000000002	53.879259759999997
      0.44353822799999998	54.690431349999997
      0.45697202599999998	55.560433060000001
      0.47129457299999999	56.49695913
      0.486604327	57.509196449999997
      0.503014823	58.60819978
      0.520657166	59.807376320000003
      0.53968265500000001	61.123111049999999
      0.56026517099999995	62.575567960000001
      0.58260257699999995	64.189698669999999
      0.60691558199999995	65.996464399999994
      0.63344113800000001	68.034201780000004
      0.662415215	70.349880479999996
      0.69403682899999997	72.999622560000006
      0.72840307800000004	76.047204840000006
      0.76540934699999996	79.558509650000005
      0.80463064699999998	83.589963030000007
      0.84524547999999999	88.171938179999998
      0.88609953900000005	93.294734669999997
      0.92594964300000004	98.90894376
      0.963771241	104.9435902
      0.99893980100000002	111.3300564
      1.0312218310000001	118.0174305
      1.0606584889999999	124.9760964
      1.0874410889999999	132.19454709999999
      1.1118223309999999	139.6744898
      1.1340651580000001	147.42664859999999
      1.1544176930000001	155.46782519999999
      1.173103241	163.8190534
      1.1903180360000001	172.50453999999999
      1.2062325739999999	181.55112829999999
      1.220994358	190.98810510000001
      1.234730984	200.84723579999999
      1.2475531	211.16296399999999
      1.2595570490000001	221.97273730000001
      1.270827143	233.31744900000001
      1.281437594	245.2419931
      1.291454146	257.79594609999998
      1.3009354369999999	271.03439809999998
      1.309934159	285.01896390000002
      1.318498043	299.81902289999999
      1.326670706	315.51324579999999
      1.3344924010000001	332.19149570000002
      1.3420006879999999	349.95721329999998
      1.3492310569999999	368.93044570000001
      1.356217531	389.25173360000002
      1.362993272	411.08716509999999
      1.3695912379999999	434.63503709999998
      1.3760449050000001	460.1347695
      1.382389146	487.87903890000001
      1.3886613240000001	518.23060969999995
      1.394902732	551.64618570000005
      1.401160583	588.71104339999999
      1.4074908660000001	630.19074279999995
      1.4139626249999999	677.11087850000001
      1.420664664	730.8848299
      1.4277165590000001	793.52783980000004
      1.435287779	868.03580320000003
      1.4436331710000001	959.10175079999999
      1.453164339	1074.5891859999999
      1.464608755	1228.9034079999999
      1.479413587	1451.8548430000001
      1.5007295060000001	1812.597843
      1.531321148	2396.2922779999999
      1.5749716949999999	3340.7297119999998
      1.6351726849999999	4868.8615820000005
      1.6746062129999999	6056.7860730000002
      1.7053540309999999	7126.7301200000002
      1.7307497590000001	8135.9466300000004
      1.752580204	9119.3875740000003
      1.771845345	10098.25848
      1.789165838	11087.22133
      1.804957089	12097.58993
      1.819514077	13138.977849999999
      1.8330565510000001	14220.25051
      1.845754994	15350.15127
      1.8577465099999999	16537.778849999999
      1.869145125	17793.012470000001
      1.8800488470000001	19126.948680000001
      1.8905448170000001	20552.403480000001
      1.9007133519999999	22084.53774
      1.9106314310000001	23741.68173
      1.920376064	25546.46932
      1.930027954	27527.455720000002
      1.9396760099999999	29721.505959999999
      1.9494234969999999	32177.45292
      1.959397184	34961.935420000002
      1.969762051	38169.180130000001
      1.980746793	41938.394229999998
      1.9926918389999999	46487.096960000003
      2.0061495709999999	52181.595710000001
      2.022124024	59707.652569999998
      2.042772002	70576.241299999994
      2.0725625070000002	88161.987269999998
      2.1158769670000002	116616.322
      2.1803765140000002	162656.4026
      2.2792825830000001	237150.818
      2.3747656959999999	310949.48619999998
  <EndBlock>
  <BeginBlock>
    <BlockName> = "ShaftAir"
    <Mu_x> = 1
    <Mu_y> = 1
    <H_c> = 0
    <H_cAngle> = 0
    <J_re> = 0
    <J_im> = 0
    <Sigma> = 0
    <d_lam> = 0
    <Phi_h> = 0
    <Phi_hx> = 0
    <Phi_hy> = 0
    <LamType> = 0
    <LamFill> = 1
    <NStrands> = 0
    <WireD> = 0
    <BHPoints> = 3
      -100	-7.9577471545947675e-011
      0	0
      100	7.9577471545947675e-011
  <EndBlock>
  <BeginBlock>
    <BlockName> = "Copper"
    <Mu_x> = 1
    <Mu_y> = 1
    <H_c> = 0
    <H_cAngle> = 0
    <J_re> = 0
    <J_im> = 0
    <Sigma> = 58
    <d_lam> = 0
    <Phi_h> = 0
    <Phi_hx> = 0
    <Phi_hy> = 0
    <LamType> = 0
    <LamFill> = 1
    <NStrands> = 0
    <WireD> = 0
    <BHPoints> = 0
  <EndBlock>
  <BeginBlock>
    <BlockName> = "Aluminium"
    <Mu_x> = 1
    <Mu_y> = 1
    <H_c> = 0
    <H_cAngle> = 0
    <J_re> = 0
    <J_im> = 0
    <Sigma> = 29
    <d_lam> = 0
    <Phi_h> = 0
    <Phi_hx> = 0
    <Phi_hy> = 0
    <LamType> = 0
    <LamFill> = 1
    <NStrands> = 0
    <WireD> = 0
    <BHPoints> = 0
  <EndBlock>
  <BeginBlock>
    <BlockName> = "BMN-52UH"
    <Mu_x> = 1.05
    <Mu_y> = 1.05
    <H_c> = 1098926.9880154678
    <H_cAngle> = 0
    <J_re> = 0
    <J_im> = 0
    <Sigma> = 0.66600000000000004
    <d_lam> = 0
    <Phi_h> = 0
    <Phi_hx> = 0
    <Phi_hy> = 0
    <LamType> = 0
    <LamFill> = 1
    <NStrands> = 0
    <WireD> = 0
    <BHPoints> = 0
  <EndBlock>
  <BeginBlock>
    <BlockName> = "DW235"
    <Mu_x> = 1
    <Mu_y> = 1
    <H_c> = 0
    <H_cAngle> = 0
    <J_re> = 0
    <J_im> = 0
    <Sigma> = 0
    <d_lam> = 0
    <Phi_h> = 0
    <Phi_hx> = 0
    <Phi_hy> = 0
    <LamType> = 0
    <LamFill> = 1
    <NStrands> = 0
    <WireD> = 0
    <BHPoints> = 0
  <EndBlock>
  <BeginBlock>
    <BlockName> = "Air"
    <Mu_x> = 1
    <Mu_y> = 1
    <H_c> = 0
    <H_cAngle> = 0
    <J_re> = 0
    <J_im> = 0
    <Sigma> = 0
    <d_lam> = 0
    <Phi_h> = 0
    <Phi_hx> = 0
    <Phi_hy> = 0
    <LamType> = 0
    <LamFill> = 1
    <NStrands> = 0
    <WireD> = 0
    <BHPoints> = 0
  <EndBlock>
  <BeginBlock>
    <BlockName> = "BMN-52UH_1"
    <Mu_x> = 1.05
    <Mu_y> = 1.05
    <H_c> = 1098926.9880154678
    <H_cAngle> = 0
    <J_re> = 0
    <J_im> = 0
    <Sigma> = 0.66600000000000004
    <d_lam> = 0
    <Phi_h> = 0
    <Phi_hx> = 0
    <Phi_hy> = 0
    <LamType> = 0
    <LamFill> = 1
    <NStrands> = 0
    <WireD> = 0
    <BHPoints> = 0
  <EndBlock>
  <BeginBlock>
    <BlockName> = "BMN-52UH_2"
    <Mu_x> = 1.05
    <Mu_y> = 1.05
    <H_c> = 1098926.9880154678
    <H_cAngle> = 0
    <J_re> = 0
    <J_im> = 0
    <Sigma> = 0.66600000000000004
    <d_lam> = 0
    <Phi_h> = 0
    <Phi_hx> = 0
    <Phi_hy> = 0
    <LamType> = 0
    <LamFill> = 1
    <NStrands> = 0
    <WireD> = 0
    <BHPoints> = 0
  <EndBlock>
  <BeginBlock>
    <BlockName> = "BMN-52UH_3"
    <Mu_x> = 1.05
    <Mu_y> = 1.05
    <H_c> = 1098926.9880154678
    <H_cAngle> = 0
    <J_re> = 0
    <J_im> = 0
    <Sigma> = 0.66600000000000004
    <d_lam> = 0
    <Phi_h> = 0
    <Phi_hx> = 0
    <Phi_hy> = 0
    <LamType> = 0
    <LamFill> = 1
    <NStrands> = 0
    <WireD> = 0
    <BHPoints> = 0
  <EndBlock>
  <BeginBlock>
    <BlockName> = "BMN-52UH_4"
    <Mu_x> = 1.05
    <Mu_y> = 1.05
    <H_c> = 1098926.9880154678
    <H_cAngle> = 0
    <J_re> = 0
    <J_im> = 0
    <Sigma> = 0.66600000000000004
    <d_lam> = 0
    <Phi_h> = 0
    <Phi_hx> = 0
    <Phi_hy> = 0
    <LamType> = 0
    <LamFill> = 1
    <NStrands> = 0
    <WireD> = 0
    <BHPoints> = 0
  <EndBlock>
  <BeginBlock>
    <BlockName> = "BMN-52UH_5"
    <Mu_x> = 1.05
    <Mu_y> = 1.05
    <H_c> = 1098926.9880154678
    <H_cAngle> = 0
    <J_re> = 0
    <J_im> = 0
    <Sigma> = 0.66600000000000004
    <d_lam> = 0
    <Phi_h> = 0
    <Phi_hx> = 0
    <Phi_hy> = 0
    <LamType> = 0
    <LamFill> = 1
    <NStrands> = 0
    <WireD> = 0
    <BHPoints> = 0
  <EndBlock>
  <BeginBlock>
    <BlockName> = "BMN-52UH_6"
    <Mu_x> = 1.05
    <Mu_y> = 1.05
    <H_c> = 1098926.9880154678
    <H_cAngle> = 0
    <J_re> = 0
    <J_im> = 0
    <Sigma> = 0.66600000000000004
    <d_lam> = 0
    <Phi_h> = 0
    <Phi_hx> = 0
    <Phi_hy> = 0
    <LamType> = 0
    <LamFill> = 1
    <NStrands> = 0
    <WireD> = 0
    <BHPoints> = 0
  <EndBlock>
  <BeginBlock>
    <BlockName> = "BMN-52UH_7"
    <Mu_x> = 1.05
    <Mu_y> = 1.05
    <H_c> = 1098926.9880154678
    <H_cAngle> = 0
    <J_re> = 0
    <J_im> = 0
    <Sigma> = 0.66600000000000004
    <d_lam> = 0
    <Phi_h> = 0
    <Phi_hx> = 0
    <Phi_hy> = 0
    <LamType> = 0
    <LamFill> = 1
    <NStrands> = 0
    <WireD> = 0
    <BHPoints> = 0
  <EndBlock>
  <BeginBlock>
    <BlockName> = "BMN-52UH_8"
    <Mu_x> = 1.05
    <Mu_y> = 1.05
    <H_c> = 1098926.9880154678
    <H_cAngle> = 0
    <J_re> = 0
    <J_im> = 0
    <Sigma> = 0.66600000000000004
    <d_lam> = 0
    <Phi_h> = 0
    <Phi_hx> = 0
    <Phi_hy> = 0
    <LamType> = 0
    <LamFill> = 1
    <NStrands> = 0
    <WireD> = 0
    <BHPoints> = 0
  <EndBlock>
[CircuitProps]  = 6
  <BeginCircuit>
    <CircuitName> = "fase1"
    <TotalAmps_re> = 0
    <TotalAmps_im> = 0
    <CircuitType> = 1
  <EndCircuit>
  <BeginCircuit>
    <CircuitName> = "fase2"
    <TotalAmps_re> = 0
    <TotalAmps_im> = 0
    <CircuitType> = 1
  <EndCircuit>
  <BeginCircuit>
    <CircuitName> = "fase3"
    <TotalAmps_re> = 0
    <TotalAmps_im> = 0
    <CircuitType> = 1
  <EndCircuit>
  <BeginCircuit>
    <CircuitName> = "fase1n"
    <TotalAmps_re> = 0
    <TotalAmps_im> = 0
    <CircuitType> = 1
  <EndCircuit>
  <BeginCircuit>
    <CircuitName> = "fase2n"
    <TotalAmps_re> = 0
    <TotalAmps_im> = 0
    <CircuitType> = 1
  <EndCircuit>
  <BeginCircuit>
    <CircuitName> = "fase3n"
    <TotalAmps_re> = 0
    <TotalAmps_im> = 0
    <CircuitType> = 1
  <EndCircuit>
[NumPoints] = 203
731.15988617610765	46.113564086385523	0	2
731.56729099148276	38.339817116974004	0	2
731.52493511006867	48.870624655155105	0	2
731.41874041638835	48.960013971023891	0	2
724.15130728123086	48.196175969008721	0	2
724.68675507069565	37.979223509088357	0	2
719.43033368547071	52.527887869217999	0	2
720.20510606271966	37.744350237054292	0	2
724.67366105842564	53.078983783000005	0	2
730.67018120955913	60.317119735323459	0	2
730.56309102428577	60.405839876486027	0	2
712.43607791874274	58.500614026377043	0	2
713.54216787181053	37.395160442968582	0	2
707.4987233865503	62.797704310727596	0	2
708.84292113395645	37.148883357134572	0	2
723.94584203739362	64.526366138848317	0	2
729.65783265765469	71.529825131264062	0	2
729.54862135903034	71.618897389194885	0	2
700.71832549472083	68.588711189893445	0	2
702.38375763160093	36.81037294195005	0	2
724.27935025532054	45.752970478499876	0	2
712.76739549456158	52.178698075132289	0	2
701.03955988419477	62.459193895543073	0	2
710.32758566670896	63.095029717355587	0	2
709.65149266985873	69.527624894336753	0	2
723.23647986858907	64.451809170569732	0	2
722.56038687173884	70.884404347550884	0	2
731.97469580685788	30.566070147562485	0	2
732.62593626895239	27.862271049149079	0	2
732.52966704873552	27.762271049167985	0	2
725.22220286016045	27.762271049167996	0	2
720.97987843996862	22.960812604890585	0	2
726.25208752593687	22.960812604890585	0	2
732.97234934027483	16.389134955004124	0	2
732.87511958625805	16.289706859560109	0	2
714.64825782487833	16.28970685956012	0	2
710.18711888136261	11.500062403541548	0	2
726.72483285974897	11.500062403541545	0	2
733.13759340377226	5.1320346940054193	0	2
733.03829096231004	5.0320346940066543	0	2
704.04918976848103	5.0320346940066543	0	2
725.09415988607077	30.205476539676837	0	2
714.31694024905948	22.611622810804874	0	2
703.72795537900708	11.161551988357026	0	2
713.03156332580716	11.500062403541548	0	2
713.03156332580716	5.0320346940066472	0	2
726.01156332580706	11.500062403541552	0	2
726.01156332580706	5.0320346940066472	0	2
736	0	0	20
650	0	0	2
731.96811499104911	76.932948964992946	0	20
646.43923198937762	67.943501123974741	0	2
0	0	0	2
800	0	0	1
738	0	0	20
795.61751629461867	83.622770614122771	0	1
733.95715878178567	77.142005891528257	0	20
745.09068792044275	5.5155455330650751	0	1
745.0975570015795	4.3348507791937889	0	1
745.35669902776044	6.5319282535229188	0	1
786.40335343933759	7.0095493189830709	0	1
787.71157999991192	5.7259500571297091	0	1
787.72000241007379	4.5828209127071435	0	1
787.72488118148226	3.4396711519973993	0	1
786.43167819596954	2.1409372157797115	0	1
745.38224506631946	2.1409372157797111	0	1
745.10442608271626	3.1541560253225027	0	1
766.42037238868147	2.140937215779712	0	1
766.39340223728686	6.776712456882235	0	1
737.97969715167653	5.4741749989851183	0	1
737.99343531395004	3.1127854912425459	0	1
744.97607640608226	14.184500374877706	0	1
744.99668271952885	13.003965468176094	0	1
745.2302436234686	15.203909404300026	0	1
786.26856225702079	16.159086872973596	0	1
787.59163527972191	14.890796064277367	0	1
787.6133577311947	13.747842297529468	0	1
787.63153702366606	12.604826684711147	0	1
786.35353269219809	11.291133901914582	0	1
745.30687828062105	10.813512836454432	0	1
745.01728903297544	11.823430561474481	0	1
766.34358149014747	11.058297039813747	0	1
766.26267468729054	15.693444671155909	0	1
737.86604835163689	14.060394373545909	0	1
737.90726097852996	11.699324560142687	0	1
744.76060705619932	22.851534862398314	0	1
744.79494781219068	21.671319628395302	0	1
745.0028959734816	23.873832189120741	0	1
786.02732289758785	25.306436745268499	0	1
787.36506325950745	24.053626096002706	0	1
787.40008281141888	22.911002444573626	0	1
787.43156016376804	21.768275725663855	0	1
786.16892750767363	20.439801949262236	0	1
745.13060887412155	19.484624480588664	0	1
744.82928856818205	20.491104394392291	0	1
766.16303993794338	19.974159747444549	0	1
766.02820743711004	24.608052244234308	0	1
737.65250430005926	22.644710195780632	0	1
737.72118581204188	20.28427972777461	0	1
744.44430904189448	31.515475617895056	0	1
744.49237959124207	30.335739838841004	0	1
744.67468685703204	32.540522839224003	0	1
785.6796680209859	34.450360531121497	0	1
787.03189461349314	33.213199651793651	0	1
787.08020652475659	32.071060808635224	0	1
787.12497767545369	30.928777690539512	0	1
785.87788763498293	29.585702774616589	0	1
744.8534607108769	28.153098218468831	0	1
744.54045014058966	29.156004059786955	0	1
765.87877217450534	28.887318273582402	0	1
765.69003222985782	33.519328280952841	0	1
737.33909390738984	31.225960286740595	0	1
737.43523500608489	28.86648872863249	0	1
744.02722518485609	40.17514968247788	0	1
744.08901901957688	38.996053075712631	0	1
744.24566070838011	41.202808023428055	0	1
785.22564469412066	43.589620289623582	0	1
786.59217444738044	42.368276672012854	0	1
786.65377217733646	41.22677726444163	0	1
786.71183106508443	40.085092394009045	0	1
785.48045247626612	38.727598169409127	0	1
744.47547131231204	36.817760477511634	0	1
744.15081285429756	37.816956468947375	0	1
765.49081668513804	37.796565919240471	0	1
765.24819484904367	42.426066337183592	0	1
736.92585960437907	39.802982882528056	0	1
737.04944727382053	37.444789668997544	0	1
743.50941195156145	48.829384674898392	0	1
743.58492070575937	47.651086871228074	0	1
743.71587561079889	49.859515006980686	0	1
784.66531438448249	52.72297871130035	0	1
786.04596229224114	51.517617705781895	0	1
786.12083750154295	50.37691227454507	0	1
786.19217626609793	49.235980217631521	0	1
784.97667583788143	47.864250467342494	0	1
743.99669185214088	45.477438201146974	0	1
743.66042945995741	46.472789067557748	0	1
764.99922599280455	46.700696514902518	0	1
764.70275511237617	51.327060583168588	0	1
736.41285733633651	48.374616791580451	0	1
736.56387484473237	46.018021184239807	0	1
742.89093944563376	57.477008950271504	0	1
742.98015289663238	56.299669472357095	0	1
743.08540328871004	58.509471810328783	0	1
783.99875295182585	61.849199285623989	0	1
785.39333209645736	60.659984078783097	0	1
785.48147464820033	59.520227057136189	0	1
785.5660836314355	58.380202277678691	0	1
784.36662592312166	56.994422711950747	0	1
743.41718714943806	54.130959007631084	0	1
743.06936634763099	55.122329994442694	0	1
764.40406665101546	55.598504583819	0	1
764.05378686366453	60.221105966769812	0	1
735.80015655555746	56.939701551877128	0	1
735.97858345755469	54.585022596048319	0	1
742.17189139835	66.116851758697365	0	1
742.27479746807614	64.940629999457897	0	1
742.35432909797396	67.151507367785555	0	1
783.22605063789888	70.967046468416925	0	1
784.63437221571087	69.7941380609562	0	1
784.73577017680441	68.655483753755263	0	1
784.83363792401769	67.516520592859976	0	1
783.65038532298001	66.11687882406342	0	1
742.73703565986432	62.777151348768214	0	1
742.37770353780206	63.76440824021843	0	1
763.70541923481869	64.488785505209236	0	1
763.30137796282133	69.106998376613944	0	1
735.08784021191991	65.497077588047347	0	1
735.29365235137197	63.144634069568411	0	1
741.35236515730571	74.747743403762229	0	1
741.46894991392458	73.572798604795494	0	1
741.52275201433292	75.784451686074149	0	1
782.34731205422565	80.075285849124768	0	1
783.76918540102008	78.918843034067237	0	1
783.88382504380354	77.781445596878427	0	1
783.99493830526876	76.643698251925358	0	1
782.8280510049683	75.230383769150876	0	1
741.95632946504327	71.414844668519507	0	1
741.58553467054355	72.397853805828774	0	1
762.90337832989076	73.37033567734791	0	1
762.44563027396737	77.983534805109869	0	1
734.27600474165422	74.045586368358215	0	1
734.50917425489195	71.69569677042476	0	1
799.9458464030098	9.3082126411176116	0	1
737.95004330677648	8.5868261614309969	0	1
799.78339294356942	18.615165099245058	0	1
737.80017999044276	17.172489804053566	0	1
799.51266161527656	27.919597362000776	0	1
737.5504303400927	25.755828566445715	0	1
799.13368907081963	37.220249758197319	0	1
737.20082816783111	34.335680401937026	0	1
798.6465266170145	46.515863128380666	0	1
736.75142080419596	42.910883735931165	0	1
798.05124020785934	55.805178995300253	0	1
736.20226909175028	51.480277623164483	0	1
797.34791043560483	65.086939734286631	0	1
735.5534473768455	60.042701904879415	0	1
796.53663251984358	74.359888743513764	0	1
734.80504349955572	68.596997365891454	0	1
737.33333333333337	0	0	20
733.29414418487352	77.072320249349815	0	20
736.66666666666663	0	0	20
732.63112958796125	77.002634607171373	0	20
[NumSegments] = 184
0	1	1.1851851851851851	0	0	2
4	3	1.1851851851851851	0	0	2
5	20	1.1851851851851851	0	0	2
6	7	1.1851851851851851	0	0	2
8	6	1.1851851851851851	0	0	2
11	10	1.1851851851851851	0	0	2
12	21	1.1851851851851851	0	0	2
13	14	1.1851851851851851	0	0	2
15	25	1.1851851851851851	0	0	2
18	24	1.1851851851851851	0	0	2
19	22	1.1851851851851851	0	0	2
1	5	1.1851851851851851	0	0	2
20	4	1.1851851851851851	0	0	2
20	0	1.1851851851851851	0	0	2
7	12	1.1851851851851851	0	0	2
21	11	1.1851851851851851	0	0	2
21	6	1.1851851851851851	0	0	2
14	19	1.1851851851851851	0	0	2
22	18	1.1851851851851851	0	0	2
22	13	1.1851851851851851	0	0	2
23	13	1.1851851851851851	0	0	2
24	26	1.1851851851851851	0	0	2
23	24	1.1851851851851851	0	0	2
25	23	1.1851851851851851	0	0	2
26	17	1.1851851851851851	0	0	2
26	25	1.1851851851851851	0	0	2
27	1	1.1851851851851851	0	0	2
30	29	1.1851851851851851	0	0	2
5	41	1.1851851851851851	0	0	2
31	7	1.1851851851851851	0	0	2
32	31	1.1851851851851851	0	0	2
35	34	1.1851851851851851	0	0	2
12	42	1.1851851851851851	0	0	2
36	14	1.1851851851851851	0	0	2
37	46	1.1851851851851851	0	0	2
40	45	1.1851851851851851	0	0	2
19	43	1.1851851851851851	0	0	2
41	30	1.1851851851851851	0	0	2
41	27	1.1851851851851851	0	0	2
42	35	1.1851851851851851	0	0	2
42	31	1.1851851851851851	0	0	2
43	40	1.1851851851851851	0	0	2
43	36	1.1851851851851851	0	0	2
44	36	1.1851851851851851	0	0	2
45	47	1.1851851851851851	0	0	2
44	45	1.1851851851851851	0	0	2
46	44	1.1851851851851851	0	0	2
47	39	1.1851851851851851	0	0	2
47	46	1.1851851851851851	0	0	2
48	49	-1	4	0	2
51	50	-1	4	0	2
49	52	-1	2	0	2
52	51	-1	2	0	2
53	54	-1	10	0	1
56	55	-1	10	0	1
57	58	1.1851851851851851	0	0	1
59	57	1.1851851851851851	0	0	1
60	68	1.1851851851851851	0	0	1
62	61	1.1851851851851851	0	0	1
63	62	1.1851851851851851	0	0	1
65	67	1.1851851851851851	0	0	1
66	65	1.1851851851851851	0	0	1
58	66	1.1851851851851851	0	0	1
67	64	1.1851851851851851	0	0	1
68	59	1.1851851851851851	0	0	1
67	68	1.1851851851851851	0	0	1
57	69	1.1851851851851851	0	0	1
70	66	1.1851851851851851	0	0	1
71	72	1.1851851851851851	0	0	1
73	71	1.1851851851851851	0	0	1
74	82	1.1851851851851851	0	0	1
76	75	1.1851851851851851	0	0	1
77	76	1.1851851851851851	0	0	1
79	81	1.1851851851851851	0	0	1
80	79	1.1851851851851851	0	0	1
72	80	1.1851851851851851	0	0	1
81	78	1.1851851851851851	0	0	1
82	73	1.1851851851851851	0	0	1
81	82	1.1851851851851851	0	0	1
71	83	1.1851851851851851	0	0	1
84	80	1.1851851851851851	0	0	1
85	86	1.1851851851851851	0	0	1
87	85	1.1851851851851851	0	0	1
88	96	1.1851851851851851	0	0	1
90	89	1.1851851851851851	0	0	1
91	90	1.1851851851851851	0	0	1
93	95	1.1851851851851851	0	0	1
94	93	1.1851851851851851	0	0	1
86	94	1.1851851851851851	0	0	1
95	92	1.1851851851851851	0	0	1
96	87	1.1851851851851851	0	0	1
95	96	1.1851851851851851	0	0	1
85	97	1.1851851851851851	0	0	1
98	94	1.1851851851851851	0	0	1
99	100	1.1851851851851851	0	0	1
101	99	1.1851851851851851	0	0	1
102	110	1.1851851851851851	0	0	1
104	103	1.1851851851851851	0	0	1
105	104	1.1851851851851851	0	0	1
107	109	1.1851851851851851	0	0	1
108	107	1.1851851851851851	0	0	1
100	108	1.1851851851851851	0	0	1
109	106	1.1851851851851851	0	0	1
110	101	1.1851851851851851	0	0	1
109	110	1.1851851851851851	0	0	1
99	111	1.1851851851851851	0	0	1
112	108	1.1851851851851851	0	0	1
113	114	1.1851851851851851	0	0	1
115	113	1.1851851851851851	0	0	1
116	124	1.1851851851851851	0	0	1
118	117	1.1851851851851851	0	0	1
119	118	1.1851851851851851	0	0	1
121	123	1.1851851851851851	0	0	1
122	121	1.1851851851851851	0	0	1
114	122	1.1851851851851851	0	0	1
123	120	1.1851851851851851	0	0	1
124	115	1.1851851851851851	0	0	1
123	124	1.1851851851851851	0	0	1
113	125	1.1851851851851851	0	0	1
126	122	1.1851851851851851	0	0	1
127	128	1.1851851851851851	0	0	1
129	127	1.1851851851851851	0	0	1
130	138	1.1851851851851851	0	0	1
132	131	1.1851851851851851	0	0	1
133	132	1.1851851851851851	0	0	1
135	137	1.1851851851851851	0	0	1
136	135	1.1851851851851851	0	0	1
128	136	1.1851851851851851	0	0	1
137	134	1.1851851851851851	0	0	1
138	129	1.1851851851851851	0	0	1
137	138	1.1851851851851851	0	0	1
127	139	1.1851851851851851	0	0	1
140	136	1.1851851851851851	0	0	1
141	142	1.1851851851851851	0	0	1
143	141	1.1851851851851851	0	0	1
144	152	1.1851851851851851	0	0	1
146	145	1.1851851851851851	0	0	1
147	146	1.1851851851851851	0	0	1
149	151	1.1851851851851851	0	0	1
150	149	1.1851851851851851	0	0	1
142	150	1.1851851851851851	0	0	1