[Format]      =  4.0
[Frequency]   =  0
[Precision]   =  1e-008
[MinAngle]    =  15
[DoSmartMesh] =  1
[Depth]       =  300
[LengthUnits] =  millimeters
[ProblemType] =  planar
[Coordinates] =  cartesian
[ACSolver]    =  0
[PrevType]    =  0
[PrevSoln]    =  ""
[Comment]     =  "Add comments here."
[PointProps]   = 0
[BdryProps]   = 11
  <BeginBdry>
    <BdryName> = "A=0"
    <BdryType> = 0
    <A_0> = 0
    <A_1> = 0
    <A_2> = 0
    <Phi> = 0
    <c0> = 0
    <c0i> = 0
    <c1> = 0
    <c1i> = 0
    <Mu_ssd> = 0
    <Sigma_ssd> = 0
    <innerangle> = 0
    <outerangle> = 0
  <EndBdry>
  <BeginBdry>
    <BdryName> = "APr1"
    <BdryType> = 5
    <A_0> = 0
    <A_1> = 0
    <A_2> = 0
    <Phi> = 0
    <c0> = 0
    <c0i> = 0
    <c1> = 0
    <c1i> = 0
    <Mu_ssd> = 0
    <Sigma_ssd> = 0
    <innerangle> = 0
    <outerangle> = 0
  <EndBdry>
  <BeginBdry>
    <BdryName> = "APr2"
    <BdryType> = 5
    <A_0> = 0
    <A_1> = 0
    <A_2> = 0
    <Phi> = 0
    <c0> = 0
    <c0i> = 0
    <c1> = 0
    <c1i> = 0
    <Mu_ssd> = 0
    <Sigma_ssd> = 0
    <innerangle> = 0
    <outerangle> = 0
  <EndBdry>
  <BeginBdry>
    <BdryName> = "APr3"
    <BdryType> = 5
    <A_0> = 0
    <A_1> = 0
    <A_2> = 0
    <Phi> = 0
    <c0> = 0
    <c0i> = 0
    <c1> = 0
    <c1i> = 0
    <Mu_ssd> = 0
    <Sigma_ssd> = 0
    <innerangle> = 0
    <outerangle> = 0
  <EndBdry>
  <BeginBdry>
    <BdryName> = "APg1"
    <BdryType> = 5
    <A_0> = 0
    <A_1> = 0
    <A_2> = 0
    <Phi> = 0
    <c0> = 0
    <c0i> = 0
    <c1> = 0
    <c1i> = 0
    <Mu_ssd> = 0
    <Sigma_ssd> = 0
    <innerangle> = 0
    <outerangle> = 0
  <EndBdry>
  <BeginBdry>
    <BdryName> = "APg2"
    <BdryType> = 5
    <A_0> = 0
    <A_1> = 0
    <A_2> = 0
    <Phi> = 0
    <c0> = 0
    <c0i> = 0
    <c1> = 0
    <c1i> = 0
    <Mu_ssd> = 0
    <Sigma_ssd> = 0
    <innerangle> = 0
    <outerangle> = 0
  <EndBdry>
  <BeginBdry>
    <BdryName> = "APg3"
    <BdryType> = 5
    <A_0> = 0
    <A_1> = 0
    <A_2> = 0
    <Phi> = 0
    <c0> = 0
    <c0i> = 0
    <c1> = 0
    <c1i> = 0
    <Mu_ssd> = 0
    <Sigma_ssd> = 0
    <innerangle> = 0
    <outerangle> = 0
  <EndBdry>
  <BeginBdry>
    <BdryName> = "APs1"
    <BdryType> = 5
    <A_0> = 0
    <A_1> = 0
    <A_2> = 0
    <Phi> = 0
    <c0> = 0
    <c0i> = 0
    <c1> = 0
    <c1i> = 0
    <Mu_ssd> = 0
    <Sigma_ssd> = 0
    <innerangle> = 0
    <outerangle> = 0
  <EndBdry>
  <BeginBdry>
    <BdryName> = "APs2"
    <BdryType> = 5
    <A_0> = 0
    <A_1> = 0
    <A_2> = 0
    <Phi> = 0
    <c0> = 0
    <c0i> = 0
    <c1> = 0
    <c1i> = 0
    <Mu_ssd> = 0
    <Sigma_ssd> = 0
    <innerangle> = 0
    <outerangle> = 0
  <EndBdry>
  <BeginBdry>
    <BdryName> = "APs3"
    <BdryType> = 5
    <A_0> = 0
    <A_1> = 0
    <A_2> = 0
    <Phi> = 0
    <c0> = 0
    <c0i> = 0
    <c1> = 0
    <c1i> = 0
    <Mu_ssd> = 0
    <Sigma_ssd> = 0
    <innerangle> = 0
    <outerangle> = 0
  <EndBdry>
  <BeginBdry>
    <BdryName> = "AGap"
    <BdryType> = 7
    <A_0> = 0
    <A_1> = 0
    <A_2> = 0
    <Phi> = 0
    <c0> = 0
    <c0i> = 0
    <c1> = 0
    <c1i> = 0
    <Mu_ssd> = 0
    <Sigma_ssd> = 0
    <innerangle> = 0
    <outerangle> = 0
  <EndBdry>
[BlockProps]  = 15
  <BeginBlock>
    <BlockName> = "M270-35A"
    <Mu_x> = 1
    <Mu_y> = 1
    <H_c> = 0
    <H_cAngle> = 0
    <J_re> = 0
    <J_im> = 0
    <Sigma> = 0
    <d_lam> = 0
    <Phi_h> = 0
    <Phi_hx> = 0
    <Phi_hy> = 0
    <LamType> = 0
    <LamFill> = 1
    <NStrands> = 0
    <WireD> = 0
    <BHPoints> = 200
      0	0
      0.0045422769999999999	3.2767874890000002
      0.0090353559999999996	6.114592773
      0.013222249	8.4602422570000009
      0.017196487	10.462328400000001
      0.020991169	12.199266809999999
      0.024640190999999999	13.72982376
      0.028168996000000002	15.09561901
      0.031597466999999997	16.327217480000002
      0.034941272000000002	17.447599879999999
      0.038212956999999999	18.47443998
      0.041422729999999998	19.421601849999998
      0.044579012000000001	20.300151339999999
      0.047688851999999997	21.119056130000001
      0.050758219	21.885681389999998
      0.053792226999999998	22.60614816
      0.056795300999999999	23.285597330000002
      0.059771310000000001	23.928387470000001
      0.062723663999999998	24.538245379999999
      0.065655396000000005	25.11838217
      0.068569221	25.67158405
      0.071467592999999996	26.200284
      0.074352739000000001	26.70661905
      0.077226698999999996	27.19247648
      0.080091349000000006	27.65953137
      0.082948429000000004	28.109277410000001
      0.085799557999999998	28.54305239
      0.088646256000000007	28.96205934
      0.091489953999999998	29.36738437
      0.094332005999999996	29.760011540000001
      0.097173704999999999	30.140835630000002
      0.100016285	30.510672870000001
      0.102860934	30.870270300000001
      0.105708802	31.220313650000001
      0.108561001	31.561434299999998
      0.11141862	31.894215259999999
      0.114282722	32.21919639
      0.117154355	32.536878999999999
      0.120034552	32.847729870000002
      0.12292433699999999	33.152184810000001
      0.12582473199999999	33.45065185
      0.12873675200000001	33.743513989999997
      0.13166142	34.031131799999997
      0.13459976100000001	34.313845620000002
      0.137552811	34.591977620000002
      0.14052161499999999	34.865833639999998
      0.14350723800000001	35.135704879999999
      0.14651076099999999	35.401869419999997
      0.14953328699999999	35.664593680000003
      0.15257594699999999	35.924133650000002
      0.155639899	36.180736189999998
      0.158726334	36.434640119999997
      0.161836481	36.686077320000003
      0.16497160599999999	36.93527375
      0.16813302299999999	37.182450420000002
      0.17132209400000001	37.427824389999998
      0.17454023399999999	37.671609650000001
      0.17778891699999999	37.914018050000003
      0.18106968000000001	38.155260249999998
      0.18438413100000001	38.395546590000002
      0.18773395400000001	38.635088090000004
      0.191120915	38.87409736
      0.19454686800000001	39.112789630000002
      0.19801376800000001	39.351383830000003
      0.20152367299999999	39.590103640000002
      0.20507876	39.829178749999997
      0.208681327	40.068846100000002
      0.21233381500000001	40.309351300000003
      0.216038808	40.550950149999998
      0.21979905799999999	40.793910310000001
      0.22361749	41.038513199999997
      0.227497227	41.285056060000002
      0.2314416	41.53385428
      0.23545417299999999	41.785244059999997
      0.23953876299999999	42.039585369999998
      0.24369946200000001	42.297265359999997
      0.247940667	42.558702250000003
      0.25226710400000002	42.824349750000003
      0.25668386300000001	43.0947022
      0.26119642799999998	43.370300520000001
      0.26581071499999998	43.651739030000002
      0.27054201700000002	43.94020278
      0.275438138	44.23873004
      0.28051031599999998	44.548036490000001
      0.28576849199999999	44.868763260000001
      0.29122336399999998	45.201605100000002
      0.296886504	45.547319020000003
      0.30277045699999999	45.906731970000003
      0.30888884599999999	46.280749559999997
      0.31525650100000002	46.670366299999998
      0.321889598	47.076677459999999
      0.328805825	47.50089294
      0.33602457000000002	47.944353649999996
      0.34356714500000002	48.408550759999997
      0.351457032	48.895148689999999
      0.35972019	49.406012390000001
      0.36838539799999998	49.943240269999997
      0.37748466600000002	50.509203810000002
      0.38705371900000002	51.106595769999998
      0.39713256899999999	51.738489119999997
      0.40776619800000002	52.408409570000003
      0.41900536300000002	53.120425429999997
      0.43090757000000002	53.879259759999997
      0.44353822799999998	54.690431349999997
      0.45697202599999998	55.560433060000001
      0.47129457299999999	56.49695913
      0.486604327	57.509196449999997
      0.503014823	58.60819978
      0.520657166	59.807376320000003
      0.53968265500000001	61.123111049999999
      0.56026517099999995	62.575567960000001
      0.58260257699999995	64.189698669999999
      0.60691558199999995	65.996464399999994
      0.63344113800000001	68.034201780000004
      0.662415215	70.349880479999996
      0.69403682899999997	72.999622560000006
      0.72840307800000004	76.047204840000006
      0.76540934699999996	79.558509650000005
      0.80463064699999998	83.589963030000007
      0.84524547999999999	88.171938179999998
      0.88609953900000005	93.294734669999997
      0.92594964300000004	98.90894376
      0.963771241	104.9435902
      0.99893980100000002	111.3300564
      1.0312218310000001	118.0174305
      1.0606584889999999	124.9760964
      1.0874410889999999	132.19454709999999
      1.1118223309999999	139.6744898
      1.1340651580000001	147.42664859999999
      1.1544176930000001	155.46782519999999
      1.173103241	163.8190534
      1.1903180360000001	172.50453999999999
      1.2062325739999999	181.55112829999999
      1.220994358	190.98810510000001
      1.234730984	200.84723579999999
      1.2475531	211.16296399999999
      1.2595570490000001	221.97273730000001
      1.270827143	233.31744900000001
      1.281437594	245.2419931
      1.291454146	257.79594609999998
      1.3009354369999999	271.03439809999998
      1.309934159	285.01896390000002
      1.318498043	299.81902289999999
      1.326670706	315.51324579999999
      1.3344924010000001	332.19149570000002
      1.3420006879999999	349.95721329999998
      1.3492310569999999	368.93044570000001
      1.356217531	389.25173360000002
      1.362993272	411.08716509999999
      1.3695912379999999	434.63503709999998
      1.3760449050000001	460.1347695
      1.382389146	487.87903890000001
      1.3886613240000001	518.23060969999995
      1.394902732	551.64618570000005
      1.401160583	588.71104339999999
      1.4074908660000001	630.19074279999995
      1.4139626249999999	677.11087850000001
      1.420664664	730.8848299
      1.4277165590000001	793.52783980000004
      1.435287779	868.03580320000003
      1.4436331710000001	959.10175079999999
      1.453164339	1074.5891859999999
      1.464608755	1228.9034079999999
      1.479413587	1451.8548430000001
      1.5007295060000001	1812.597843
      1.531321148	2396.2922779999999
      1.5749716949999999	3340.7297119999998
      1.6351726849999999	4868.8615820000005
      1.6746062129999999	6056.7860730000002
      1.7053540309999999	7126.7301200000002
      1.7307497590000001	8135.9466300000004
      1.752580204	9119.3875740000003
      1.771845345	10098.25848
      1.789165838	11087.22133
      1.804957089	12097.58993
      1.819514077	13138.977849999999
      1.8330565510000001	14220.25051
      1.845754994	15350.15127
      1.8577465099999999	16537.778849999999
      1.869145125	17793.012470000001
      1.8800488470000001	19126.948680000001
      1.8905448170000001	20552.403480000001
      1.9007133519999999	22084.53774
      1.9106314310000001	23741.68173
      1.920376064	25546.46932
      1.930027954	27527.455720000002
      1.9396760099999999	29721.505959999999
      1.9494234969999999	32177.45292
      1.959397184	34961.935420000002
      1.969762051	38169.180130000001
      1.980746793	41938.394229999998
      1.9926918389999999	46487.096960000003
      2.0061495709999999	52181.595710000001
      2.022124024	59707.652569999998
      2.042772002	70576.241299999994
      2.0725625070000002	88161.987269999998
      2.1158769670000002	116616.322
      2.1803765140000002	162656.4026
      2.2792825830000001	237150.818
      2.3747656959999999	310949.48619999998
  <EndBlock>
  <BeginBlock>
    <BlockName> = "ShaftAir"
    <Mu_x> = 1
    <Mu_y> = 1
    <H_c> = 0
    <H_cAngle> = 0
    <J_re> = 0
    <J_im> = 0
    <Sigma> = 0
    <d_lam> = 0
    <Phi_h> = 0
    <Phi_hx> = 0
    <Phi_hy> = 0
    <LamType> = 0
    <LamFill> = 1
    <NStrands> = 0
    <WireD> = 0
    <BHPoints> = 3
      -100	-7.9577471545947675e-011
      0	0
      100	7.9577471545947675e-011
  <EndBlock>
  <BeginBlock>
    <BlockName> = "Copper"
    <Mu_x> = 1
    <Mu_y> = 1
    <H_c> = 0
    <H_cAngle> = 0
    <J_re> = 0
    <J_im> = 0
    <Sigma> = 58
    <d_lam> = 0
    <Phi_h> = 0
    <Phi_hx> = 0
    <Phi_hy> = 0
    <LamType> = 0
    <LamFill> = 1
    <NStrands> = 0
    <WireD> = 0
    <BHPoints> = 0
  <EndBlock>
  <BeginBlock>
    <BlockName> = "Aluminium"
    <Mu_x> = 1
    <Mu_y> = 1
    <H_c> = 0
    <H_cAngle> = 0
    <J_re> = 0
    <J_im> = 0
    <Sigma> = 29
    <d_lam> = 0
    <Phi_h> = 0
    <Phi_hx> = 0
    <Phi_hy> = 0
    <LamType> = 0
    <LamFill> = 1
    <NStrands> = 0
    <WireD> = 0
    <BHPoints> = 0
  <EndBlock>
  <BeginBlock>
    <BlockName> = "BMN-52UH"
    <Mu_x> = 1.05
    <Mu_y> = 1.05
    <H_c> = 1098926.9880154678
    <H_cAngle> = 0
    <J_re> = 0
    <J_im> = 0
    <Sigma> = 0.66600000000000004
    <d_lam> = 0
    <Phi_h> = 0
    <Phi_hx> = 0
    <Phi_hy> = 0
    <LamType> = 0
    <LamFill> = 1
    <NStrands> = 0
    <WireD> = 0
    <BHPoints> = 0
  <EndBlock>
  <BeginBlock>
    <BlockName> = "DW235"
    <Mu_x> = 1
    <Mu_y> = 1
    <H_c> = 0
    <H_cAngle> = 0
    <J_re> = 0
    <J_im> = 0
    <Sigma> = 0
    <d_lam> = 0
    <Phi_h> = 0
    <Phi_hx> = 0
    <Phi_hy> = 0
    <LamType> = 0
    <LamFill> = 1
    <NStrands> = 0
    <WireD> = 0
    <BHPoints> = 0
  <EndBlock>
  <BeginBlock>
    <BlockName> = "Air"
    <Mu_x> = 1
    <Mu_y> = 1
    <H_c> = 0
    <H_cAngle> = 0
    <J_re> = 0
    <J_im> = 0
    <Sigma> = 0
    <d_lam> = 0
    <Phi_h> = 0
    <Phi_hx> = 0
    <Phi_hy> = 0
    <LamType> = 0
    <LamFill> = 1
    <NStrands> = 0
    <WireD> = 0
    <BHPoints> = 0
  <EndBlock>
  <BeginBlock>
    <BlockName> = "BMN-52UH_1"
    <Mu_x> = 1.05
    <Mu_y> = 1.05
    <H_c> = 1098926.9880154678
    <H_cAngle> = 0
    <J_re> = 0
    <J_im> = 0
    <Sigma> = 0.66600000000000004
    <d_lam> = 0
    <Phi_h> = 0
    <Phi_hx> = 0
    <Phi_hy> = 0
    <LamType> = 0
    <LamFill> = 1
    <NStrands> = 0
    <WireD> = 0
    <BHPoints> = 0
  <EndBlock>
  <BeginBlock>
    <BlockName> = "BMN-52UH_2"
    <Mu_x> = 1.05
    <Mu_y> = 1.05
    <H_c> = 1098926.9880154678
    <H_cAngle> = 0
    <J_re> = 0
    <J_im> = 0
    <Sigma> = 0.66600000000000004
    <d_lam> = 0
    <Phi_h> = 0
    <Phi_hx> = 0
    <Phi_hy> = 0
    <LamType> = 0
    <LamFill> = 1
    <NStrands> = 0
    <WireD> = 0
    <BHPoints> = 0
  <EndBlock>
  <BeginBlock>
    <BlockName> = "BMN-52UH_3"
    <Mu_x> = 1.05
    <Mu_y> = 1.05
    <H_c> = 1098926.9880154678
    <H_cAngle> = 0
    <J_re> = 0
    <J_im> = 0
    <Sigma> = 0.66600000000000004
    <d_lam> = 0
    <Phi_h> = 0
    <Phi_hx> = 0
    <Phi_hy> = 0
    <LamType> = 0
    <LamFill> = 1
    <NStrands> = 0
    <WireD> = 0
    <BHPoints> = 0
  <EndBlock>
  <BeginBlock>
    <BlockName> = "BMN-52UH_4"
    <Mu_x> = 1.05
    <Mu_y> = 1.05
    <H_c> = 1098926.9880154678
    <H_cAngle> = 0
    <J_re> = 0
    <J_im> = 0
    <Sigma> = 0.66600000000000004
    <d_lam> = 0
    <Phi_h> = 0
    <Phi_hx> = 0
    <Phi_hy> = 0
    <LamType> = 0
    <LamFill> = 1
    <NStrands> = 0
    <WireD> = 0
    <BHPoints> = 0
  <EndBlock>
  <BeginBlock>
    <BlockName> = "BMN-52UH_5"
    <Mu_x> = 1.05
    <Mu_y> = 1.05
    <H_c> = 1098926.9880154678
    <H_cAngle> = 0
    <J_re> = 0
    <J_im> = 0
    <Sigma> = 0.66600000000000004
    <d_lam> = 0
    <Phi_h> = 0
    <Phi_hx> = 0
    <Phi_hy> = 0
    <LamType> = 0
    <LamFill> = 1
    <NStrands> = 0
    <WireD> = 0
    <BHPoints> = 0
  <EndBlock>
  <BeginBlock>
    <BlockName> = "BMN-52UH_6"
    <Mu_x> = 1.05
    <Mu_y> = 1.05
    <H_c> = 1098926.9880154678
    <H_cAngle> = 0
    <J_re> = 0
    <J_im> = 0
    <Sigma> = 0.66600000000000004
    <d_lam> = 0
    <Phi_h> = 0
    <Phi_hx> = 0
    <Phi_hy> = 0
    <LamType> = 0
    <LamFill> = 1
    <NStrands> = 0
    <WireD> = 0
    <BHPoints> = 0
  <EndBlock>
  <BeginBlock>
    <BlockName> = "BMN-52UH_7"
    <Mu_x> = 1.05
    <Mu_y> = 1.05
    <H_c> = 1098926.9880154678
    <H_cAngle> = 0
    <J_re> = 0
    <J_im> = 0
    <Sigma> = 0.66600000000000004
    <d_lam> = 0
    <Phi_h> = 0
    <Phi_hx> = 0
    <Phi_hy> = 0
    <LamType> = 0
    <LamFill> = 1
    <NStrands> = 0
    <WireD> = 0
    <BHPoints> = 0
  <EndBlock>
  <BeginBlock>
    <BlockName> = "BMN-52UH_8"
    <Mu_x> = 1.05
    <Mu_y> = 1.05
    <H_c> = 1098926.9880154678
    <H_cAngle> = 0
    <J_re> = 0
    <J_im> = 0
    <Sigma> = 0.66600000000000004
    <d_lam> = 0
    <Phi_h> = 0
    <Phi_hx> = 0
    <Phi_hy> = 0
    <LamType> = 0
    <LamFill> = 1
    <NStrands> = 0
    <WireD> = 0
    <BHPoints> = 0
  <EndBlock>
[CircuitProps]  = 6
  <BeginCircuit>
    <CircuitName> = "fase1"
    <TotalAmps_re> = 0
    <TotalAmps_im> = 0
    <CircuitType> = 1
  <EndCircuit>
  <BeginCircuit>
    <CircuitName> = "fase2"
    <TotalAmps_re> = 0
    <TotalAmps_im> = 0
    <CircuitType> = 1
  <EndCircuit>
  <BeginCircuit>
    <CircuitName> = "fase3"
    <TotalAmps_re> = 0
    <TotalAmps_im> = 0
    <CircuitType> = 1
  <EndCircuit>
  <BeginCircuit>
    <CircuitName> = "fase1n"
    <TotalAmps_re> = 0
    <TotalAmps_im> = 0
    <CircuitType> = 1
  <EndCircuit>
  <BeginCircuit>
    <CircuitName> = "fase2n"
    <TotalAmps_re> = 0
    <TotalAmps_im> = 0
    <CircuitType> = 1
  <EndCircuit>
  <BeginCircuit>
    <CircuitName> = "fase3n"
    <TotalAmps_re> = 0
    <TotalAmps_im> = 0
    <CircuitType> = 1
  <EndCircuit>
[NumPoints] = 223
726.45754270502346	90.447369377913176	0	2
727.92265531714929	76.507754019669562	0	2
728.68503784678785	90.920838086383299	0	2
734.49148341230546	99.165610599921123	0	2
734.37503670410968	99.247619104383304	0	2
718.87864660850721	95.953759707364696	0	2
720.99898921423153	75.780047388687521	0	2
696.78128703540199	77.906886570590501	0	2
699.90747472218868	75.375349697059846	0	2
709.16226176815542	76.348067012072875	0	2
711.69379864168604	79.474254698859511	0	2
709.18289812768694	103.36387729734128	0	2
720.08345121281639	105.68086138141794	0	2
731.0765085826464	121.81418689738861	0	2
729.36167738567985	122.98265261200618	0	2
692.85912191980583	115.22379493001071	0	2
672.66318200358342	78.393658484784041	0	2
675.78936969037011	75.862121611253386	0	2
687.88463513753391	77.133385236412892	0	2
690.41617201106442	80.259572923199528	0	2
686.22727836518698	120.11423373005442	0	2
715.25724557367164	126.28474374528341	0	2
727.00973685473753	144.11245625992711	0	2
723.66035564200934	146.32045537741695	0	2
666.794211451043	134.23318329275344	0	2
726.87120127342655	86.511670998514234	0	2
719.94753517050879	85.783964367532192	0	2
709.29358622152654	102.31075043180881	0	2
694.38107461524248	100.7433823035398	0	2
687.05856511328875	112.20506864264841	0	2
669.30557510580775	110.33915420423293	0	2
689.00956487394103	120.70562698393604	0	2
685.29817934616517	138.16632308579307	0	2
709.83432729356366	125.13206688144615	0	2
706.12294176578791	142.59276298330317	0	2
729.38776792927513	62.568138661425948	0	2
731.66502663756557	62.568138661425962	0	2
739.05877202996555	55.710762123880968	0	2
738.96192048855471	55.60633507001036	0	2
723.11933181995585	55.606335070010346	0	2
700.28423353666108	71.790729024827698	0	2
697.75269666313045	68.664541338041062	0	2
709.53902058262781	72.763446339840726	0	2
712.66520826941451	70.231909466310071	0	2
715.17610878341361	46.342286867828314	0	2
726.32018670882269	46.3422868678283	0	2
740.42732638638961	32.847098367542074	0	2
738.99290604780197	31.347632978620844	0	2
701.67486177872661	31.347632978620858	0	2
676.79437253726439	66.300158248368987	0	2
674.26283566373377	63.173970561582351	0	2
688.88963798442819	67.571421873528493	0	2
692.01582567121477	65.039884999997838	0	2
696.20471931709221	25.185224193142936	0	2
725.88323326192665	25.185224193142943	0	2
741.08549426347884	10.190570303939566	0	2
738.2683738961473	7.3344457536129539	0	2
680.13180621627419	7.3344457536129468	0	2
728.97410936087203	66.503837040824891	0	2
722.05044325795427	65.77613040984285	0	2
715.06542068957401	47.395413733360769	0	2
700.15290908328996	45.828045605091759	0	2
695.37343256899044	33.094389280548953	0	2
677.62044256150944	31.228474842133465	0	2
699.04916376153676	25.185224193142936	0	2
699.04916376153665	7.3344457536129539	0	2
720.33916376153672	25.185224193142936	0	2
720.33916376153672	7.3344457536129539	0	2
744	0	0	20
650	0	0	2
727.74181494595143	154.68629796841293	0	20
635.79594047697367	135.14259903154357	0	2
0	0	0	2
800	0	0	1
746	0	0	20
782.51808058704455	166.32935265420744	0	1
729.69811014741902	155.10212135004844	0	20
753.02853914140258	11.149466505628297	0	1
753.05631280671446	8.7626035210506785	0	1
753.83316139648559	14.298469974007997	0	1
779.40703265800903	14.893708434771691	0	1
781.285681019668	13.08629671018001	0	1
781.34710547413977	9.0917966972116275	0	1
781.37864549741869	5.0969489474039928	0	1
779.54256238094399	3.2463124087094553	0	1
753.96176489286427	3.2463124087094544	0	1
753.08408647202634	6.375740536473061	0	1
767.25687863117787	3.2463124087094535	0	1
767.12467536548456	14.607833395572932	0	1
745.91790939559814	11.06672683770725	0	1
745.97345672622191	6.2930008685520162	0	1
752.56521357259953	28.668635914928259	0	1
752.64851952860545	26.283065458763623	0	1
753.29634394478228	31.835509482994112	0	1
778.84944027731069	33.025664072394356	0	1
780.76963656292446	31.262455907239087	0	1
780.92399223272139	27.270466723334255	0	1
781.04847965427211	23.277434517217305	0	1
779.25595605437945	21.384575316752837	0	1
753.68208479285602	20.789336855989141	0	1
752.73182548461148	23.897495002598987	0	1
766.97359876185499	21.098700277554073	0	1
766.57706055517565	32.454068800373705	0	1
745.45843435824156	28.420461716154925	0	1
745.62504627025362	23.649320803825649	0	1
751.69436066458627	46.172280752134697	0	1
751.83315379964154	43.789294652869081	0	1
752.35160323387436	49.355309501982532	0	1
777.87008718495952	51.139735730313546	0	1
779.83079157436521	49.421685932921015	0	1
780.0779948731689	45.434369310645813	0	1
780.29536228085658	41.445314945600536	0	1
778.5473688806976	39.511258100015276	0	1
752.99427254816919	38.321103510615025	0	1
751.97194693469703	41.406308553603466	0	1
766.27498915856256	38.939662827994617	0	1
765.61433074333161	50.282729754394367	0	1
744.5952804279907	45.758806413215758	0	1
744.87286669810135	40.992834214684535	0	1
750.4164519995752	63.650922484785099	0	1
750.61065715474876	61.271811171429704	0	1
750.99945085752279	66.848382750194816	0	1
776.46950371793173	69.226114319174769	0	1
778.46965445511364	67.554153243818504	0	1
778.80957151797691	63.573668385464458	0	1
779.11970120351566	59.590752004800756	0	1
777.41718457235277	57.616544839995413	0	1
751.89870062126761	55.832118611664384	0	1
750.80486230992244	58.892699858074309	0	1
765.16142813072474	56.75953886407622	0	1
764.23700726512868	68.084161723211523	0	1
743.32891501792551	63.072371909369224	0	1
743.71732532827275	58.314149282658434	0	1
748.73217958765247	81.095096120039187	0	1
748.98169159742679	78.721147923340283	0	1
749.24061903009328	84.305256419870432	0	1
774.64844831688288	87.275005745908985	0	1
776.68696228493184	85.650038789006501	0	1
777.11940904076869	81.67854119734443	0	1
777.52213306346277	77.703919620545349	0	1
775.86601514408608	75.690631204526809	0	1
750.39596228367725	73.312899635546856	0	1
749.23120360720111	76.347199726641364	0	1
763.63351869128303	74.548678608563549	0	1
762.44583596552832	85.848724917377652	0	1
741.66002388725587	80.351782603469218	0	1
742.15904790680452	75.603886210071394	0	1
746.64245549204111	98.495355330139475	0	1
746.94713924126131	96.127855784924563	0	1
747.07606019004766	101.71647730595922	0	1
772.40790711543764	105.27663621740672	0	1
774.48368042307845	103.69954332723132	0	1
775.0084226943419	99.739183638268614	0	1
775.50352297202835	95.77500919303462	0	1
773.89470058150698	93.723729756996732	0	1
748.4868712947175	90.75398043095818	0	1
747.25182299048129	93.760356239709651	0	1
761.69208823015242	92.2974489284654	0	1
760.24178679538716	103.56679951253709	0	1
739.58951076997005	97.587681389797467	0	1
740.19887826841023	92.852682299367657	0	1
744.14841133520406	115.84227756776437	0	1
744.50810183224485	113.48250871680244	0	1
744.50694648418323	119.07261692519862	0	1
769.7490934061824	123.22125753319951	0	1
771.86100198554993	121.69289273337286	0	1
772.47775561504307	117.74581555174609	0	1
773.06496404218763	113.79423490847157	0	1
771.50430838622731	111.70607525641574	0	1
746.17246146083744	108.14591634496823	0	1
744.86779232928552	111.1227398658405	0	1
759.33818806617671	109.9962385515461	0	1
757.62605328621271	121.22879085873063	0	1
737.11849688544692	114.77073472510138	0	1
737.83787787952849	110.05119702317752	0	1
741.25139768604993	133.1264691685038	0	1
741.66590015216173	130.77570886825652	0	1
741.53466913289344	136.36427662180387	0	1
766.67344698364491	141.09915236428242	0	1
768.82034719898718	139.62034329130563	0	1
769.52877820373931	135.68868602893934	0	1
770.20777679661967	131.75183903825274	0	1
768.69613299778985	129.62792994546794	0	1
743.45398607579068	125.47928933746707	0	1
742.08040261827364	128.4249485680092	0	1
756.57309287781993	127.63546327099907	0	1
754.60005190384436	138.82513467606776	0	1
734.24832033129644	131.89163768287233	0	1
735.07732526352027	127.19011708237772	0	1
737.9529833285759	150.3385704376943	0	1
738.42207330336134	147.99809166633418	0	1
738.16083767679822	153.5820926570058	0	1
763.18263336462076	158.90063951521915	0	1
765.36336263159774	157.47218697029302	0	1
766.1630873837222	153.55807868895346	0	1
766.93350845262205	149.63809722295048	0	1
765.47169509270668	147.47958882367848	0	1
740.33291724195522	142.74471308119993	0	1
738.89116327814668	145.65761289497402	0	1
753.39830001290602	145.20557113546383	0	1
751.16542128141282	156.34630223395303	0	1
730.98053535875579	148.94111899212754	0	1
731.91871530832657	144.26016144940724	0	1
799.78339294356942	18.615165099245058	0	1
745.79801391987849	17.358641455046016	0	1
799.13368907081963	37.220249758197319	0	1
745.19216505853933	34.707882899518999	0	1
798.05124020785934	55.805178995300238	0	1
744.18278149382888	52.038329413117474	0	1
796.53663251984358	74.359888743513764	0	1
742.7704098247541	69.340596253326595	0	1
794.59068619355446	92.874331300184195	0	1
740.95581487548952	86.605313937421769	0	1
792.21445499325625	111.33848076805238	0	1
738.7399792812115	103.82313331620884	0	1
789.40922569006341	129.74233848445397	0	1
736.12410295598409	120.98473063675331	0	1
786.17651736513062	148.07593843577169	0	1
733.1096024429844	138.0808125913571	0	1
745.33333333333337	0	0	20
729.04601174692982	154.96351355616994	0	20
744.66666666666663	0	0	20
728.39391334644063	154.82490576229142	0	20
[NumSegments] = 198
0	25	2.3703703703703702	0	0	2
2	0	2.3703703703703702	0	0	2
5	4	2.3703703703703702	0	0	2
6	26	2.3703703703703702	0	0	2
9	8	2.3703703703703702	0	0	2
11	27	2.3703703703703702	0	0	2
12	11	2.3703703703703702	0	0	2
15	14	2.3703703703703702	0	0	2
7	28	2.3703703703703702	0	0	2
18	17	2.3703703703703702	0	0	2
20	29	2.3703703703703702	0	0	2
21	33	2.3703703703703702	0	0	2
24	32	2.3703703703703702	0	0	2
16	30	2.3703703703703702	0	0	2
1	6	2.3703703703703702	0	0	2
25	1	2.3703703703703702	0	0	2
26	5	2.3703703703703702	0	0	2
26	25	2.3703703703703702	0	0	2
10	7	2.3703703703703702	0	0	2
27	10	2.3703703703703702	0	0	2
28	15	2.3703703703703702	0	0	2
28	27	2.3703703703703702	0	0	2
19	16	2.3703703703703702	0	0	2
29	19	2.3703703703703702	0	0	2
30	24	2.3703703703703702	0	0	2
30	29	2.3703703703703702	0	0	2
31	20	2.3703703703703702	0	0	2
32	34	2.3703703703703702	0	0	2
31	32	2.3703703703703702	0	0	2
33	31	2.3703703703703702	0	0	2
34	23	2.3703703703703702	0	0	2
34	33	2.3703703703703702	0	0	2
35	58	2.3703703703703702	0	0	2
36	35	2.3703703703703702	0	0	2
39	38	2.3703703703703702	0	0	2
6	59	2.3703703703703702	0	0	2
42	40	2.3703703703703702	0	0	2
44	60	2.3703703703703702	0	0	2
45	44	2.3703703703703702	0	0	2
48	47	2.3703703703703702	0	0	2
41	61	2.3703703703703702	0	0	2
51	49	2.3703703703703702	0	0	2
53	62	2.3703703703703702	0	0	2
54	66	2.3703703703703702	0	0	2
57	65	2.3703703703703702	0	0	2
50	63	2.3703703703703702	0	0	2
58	1	2.3703703703703702	0	0	2
59	39	2.3703703703703702	0	0	2
59	58	2.3703703703703702	0	0	2
43	41	2.3703703703703702	0	0	2
60	43	2.3703703703703702	0	0	2
61	48	2.3703703703703702	0	0	2
61	60	2.3703703703703702	0	0	2
52	50	2.3703703703703702	0	0	2
62	52	2.3703703703703702	0	0	2
63	57	2.3703703703703702	0	0	2
63	62	2.3703703703703702	0	0	2
64	53	2.3703703703703702	0	0	2
65	67	2.3703703703703702	0	0	2
64	65	2.3703703703703702	0	0	2
66	64	2.3703703703703702	0	0	2
67	56	2.3703703703703702	0	0	2
67	66	2.3703703703703702	0	0	2
68	69	-1	4	0	2
71	70	-1	4	0	2
69	72	-1	2	0	2
72	71	-1	2	0	2
73	74	-1	10	0	1
76	75	-1	10	0	1
77	78	2.3703703703703702	0	0	1
79	77	2.3703703703703702	0	0	1
80	88	2.3703703703703702	0	0	1
82	81	2.3703703703703702	0	0	1
83	82	2.3703703703703702	0	0	1
85	87	2.3703703703703702	0	0	1
86	85	2.3703703703703702	0	0	1
78	86	2.3703703703703702	0	0	1
87	84	2.3703703703703702	0	0	1
88	79	2.3703703703703702	0	0	1
87	88	2.3703703703703702	0	0	1
77	89	2.3703703703703702	0	0	1
90	86	2.3703703703703702	0	0	1
91	92	2.3703703703703702	0	0	1
93	91	2.3703703703703702	0	0	1
94	102	2.3703703703703702	0	0	1
96	95	2.3703703703703702	0	0	1
97	96	2.3703703703703702	0	0	1
99	101	2.3703703703703702	0	0	1
100	99	2.3703703703703702	0	0	1
92	100	2.3703703703703702	0	0	1
101	98	2.3703703703703702	0	0	1
102	93	2.3703703703703702	0	0	1
101	102	2.3703703703703702	0	0	1
91	103	2.3703703703703702	0	0	1
104	100	2.3703703703703702	0	0	1
105	106	2.3703703703703702	0	0	1
107	105	2.3703703703703702	0	0	1
108	116	2.3703703703703702	0	0	1
110	109	2.3703703703703702	0	0	1
111	110	2.3703703703703702	0	0	1
113	115	2.3703703703703702	0	0	1
114	113	2.3703703703703702	0	0	1
106	114	2.3703703703703702	0	0	1
115	112	2.3703703703703702	0	0	1
116	107	2.3703703703703702	0	0	1
115	116	2.3703703703703702	0	0	1
105	117	2.3703703703703702	0	0	1
118	114	2.3703703703703702	0	0	1
119	120	2.3703703703703702	0	0	1
121	119	2.3703703703703702	0	0	1
122	130	2.3703703703703702	0	0	1
124	123	2.3703703703703702	0	0	1
125	124	2.3703703703703702	0	0	1
127	129	2.3703703703703702	0	0	1
128	127	2.3703703703703702	0	0	1