[Format]      =  4.0
[Frequency]   =  0
[Precision]   =  1e-008
[MinAngle]    =  15
[DoSmartMesh] =  1
[Depth]       =  300
[LengthUnits] =  millimeters
[ProblemType] =  planar
[Coordinates] =  cartesian
[ACSolver]    =  0
[PrevType]    =  0
[PrevSoln]    =  ""
[Comment]     =  "Add comments here."
[PointProps]   = 0
[BdryProps]   = 11
  <BeginBdry>
    <BdryName> = "A=0"
    <BdryType> = 0
    <A_0> = 0
    <A_1> = 0
    <A_2> = 0
    <Phi> = 0
    <c0> = 0
    <c0i> = 0
    <c1> = 0
    <c1i> = 0
    <Mu_ssd> = 0
    <Sigma_ssd> = 0
    <innerangle> = 0
    <outerangle> = 0
  <EndBdry>
  <BeginBdry>
    <BdryName> = "APr1"
    <BdryType> = 5
    <A_0> = 0
    <A_1> = 0
    <A_2> = 0
    <Phi> = 0
    <c0> = 0
    <c0i> = 0
    <c1> = 0
    <c1i> = 0
    <Mu_ssd> = 0
    <Sigma_ssd> = 0
    <innerangle> = 0
    <outerangle> = 0
  <EndBdry>
  <BeginBdry>
    <BdryName> = "APr2"
    <BdryType> = 5
    <A_0> = 0
    <A_1> = 0
    <A_2> = 0
    <Phi> = 0
    <c0> = 0
    <c0i> = 0
    <c1> = 0
    <c1i> = 0
    <Mu_ssd> = 0
    <Sigma_ssd> = 0
    <innerangle> = 0
    <outerangle> = 0
  <EndBdry>
  <BeginBdry>
    <BdryName> = "APr3"
    <BdryType> = 5
    <A_0> = 0
    <A_1> = 0
    <A_2> = 0
    <Phi> = 0
    <c0> = 0
    <c0i> = 0
    <c1> = 0
    <c1i> = 0
    <Mu_ssd> = 0
    <Sigma_ssd> = 0
    <innerangle> = 0
    <outerangle> = 0
  <EndBdry>
  <BeginBdry>
    <BdryName> = "APg1"
    <BdryType> = 5
    <A_0> = 0
    <A_1> = 0
    <A_2> = 0
    <Phi> = 0
    <c0> = 0
    <c0i> = 0
    <c1> = 0
    <c1i> = 0
    <Mu_ssd> = 0
    <Sigma_ssd> = 0
    <innerangle> = 0
    <outerangle> = 0
  <EndBdry>
  <BeginBdry>
    <BdryName> = "APg2"
    <BdryType> = 5
    <A_0> = 0
    <A_1> = 0
    <A_2> = 0
    <Phi> = 0
    <c0> = 0
    <c0i> = 0
    <c1> = 0
    <c1i> = 0
    <Mu_ssd> = 0
    <Sigma_ssd> = 0
    <innerangle> = 0
    <outerangle> = 0
  <EndBdry>
  <BeginBdry>
    <BdryName> = "APg3"
    <BdryType> = 5
    <A_0> = 0
    <A_1> = 0
    <A_2> = 0
    <Phi> = 0
    <c0> = 0
    <c0i> = 0
    <c1> = 0
    <c1i> = 0
    <Mu_ssd> = 0
    <Sigma_ssd> = 0
    <innerangle> = 0
    <outerangle> = 0
  <EndBdry>
  <BeginBdry>
    <BdryName> = "APs1"
    <BdryType> = 5
    <A_0> = 0
    <A_1> = 0
    <A_2> = 0
    <Phi> = 0
    <c0> = 0
    <c0i> = 0
    <c1> = 0
    <c1i> = 0
    <Mu_ssd> = 0
    <Sigma_ssd> = 0
    <innerangle> = 0
    <outerangle> = 0
  <EndBdry>
  <BeginBdry>
    <BdryName> = "APs2"
    <BdryType> = 5
    <A_0> = 0
    <A_1> = 0
    <A_2> = 0
    <Phi> = 0
    <c0> = 0
    <c0i> = 0
    <c1> = 0
    <c1i> = 0
    <Mu_ssd> = 0
    <Sigma_ssd> = 0
    <innerangle> = 0
    <outerangle> = 0
  <EndBdry>
  <BeginBdry>
    <BdryName> = "APs3"
    <BdryType> = 5
    <A_0> = 0
    <A_1> = 0
    <A_2> = 0
    <Phi> = 0
    <c0> = 0
    <c0i> = 0
    <c1> = 0
    <c1i> = 0
    <Mu_ssd> = 0
    <Sigma_ssd> = 0
    <innerangle> = 0
    <outerangle> = 0
  <EndBdry>
  <BeginBdry>
    <BdryName> = "AGap"
    <BdryType> = 7
    <A_0> = 0
    <A_1> = 0
    <A_2> = 0
    <Phi> = 0
    <c0> = 0
    <c0i> = 0
    <c1> = 0
    <c1i> = 0
    <Mu_ssd> = 0
    <Sigma_ssd> = 0
    <innerangle> = 0
    <outerangle> = 0
  <EndBdry>
[BlockProps]  = 15
  <BeginBlock>
    <BlockName> = "M270-35A"
    <Mu_x> = 1
    <Mu_y> = 1
    <H_c> = 0
    <H_cAngle> = 0
    <J_re> = 0
    <J_im> = 0
    <Sigma> = 0
    <d_lam> = 0
    <Phi_h> = 0
    <Phi_hx> = 0
    <Phi_hy> = 0
    <LamType> = 0
    <LamFill> = 1
    <NStrands> = 0
    <WireD> = 0
    <BHPoints> = 200
      0	0
      0.0045422769999999999	3.2767874890000002
      0.0090353559999999996	6.114592773
      0.013222249	8.4602422570000009
      0.017196487	10.462328400000001
      0.020991169	12.199266809999999
      0.024640190999999999	13.72982376
      0.028168996000000002	15.09561901
      0.031597466999999997	16.327217480000002
      0.034941272000000002	17.447599879999999
      0.038212956999999999	18.47443998
      0.041422729999999998	19.421601849999998
      0.044579012000000001	20.300151339999999
      0.047688851999999997	21.119056130000001
      0.050758219	21.885681389999998
      0.053792226999999998	22.60614816
      0.056795300999999999	23.285597330000002
      0.059771310000000001	23.928387470000001
      0.062723663999999998	24.538245379999999
      0.065655396000000005	25.11838217
      0.068569221	25.67158405
      0.071467592999999996	26.200284
      0.074352739000000001	26.70661905
      0.077226698999999996	27.19247648
      0.080091349000000006	27.65953137
      0.082948429000000004	28.109277410000001
      0.085799557999999998	28.54305239
      0.088646256000000007	28.96205934
      0.091489953999999998	29.36738437
      0.094332005999999996	29.760011540000001
      0.097173704999999999	30.140835630000002
      0.100016285	30.510672870000001
      0.102860934	30.870270300000001
      0.105708802	31.220313650000001
      0.108561001	31.561434299999998
      0.11141862	31.894215259999999
      0.114282722	32.21919639
      0.117154355	32.536878999999999
      0.120034552	32.847729870000002
      0.12292433699999999	33.152184810000001
      0.12582473199999999	33.45065185
      0.12873675200000001	33.743513989999997
      0.13166142	34.031131799999997
      0.13459976100000001	34.313845620000002
      0.137552811	34.591977620000002
      0.14052161499999999	34.865833639999998
      0.14350723800000001	35.135704879999999
      0.14651076099999999	35.401869419999997
      0.14953328699999999	35.664593680000003
      0.15257594699999999	35.924133650000002
      0.155639899	36.180736189999998
      0.158726334	36.434640119999997
      0.161836481	36.686077320000003
      0.16497160599999999	36.93527375
      0.16813302299999999	37.182450420000002
      0.17132209400000001	37.427824389999998
      0.17454023399999999	37.671609650000001
      0.17778891699999999	37.914018050000003
      0.18106968000000001	38.155260249999998
      0.18438413100000001	38.395546590000002
      0.18773395400000001	38.635088090000004
      0.191120915	38.87409736
      0.19454686800000001	39.112789630000002
      0.19801376800000001	39.351383830000003
      0.20152367299999999	39.590103640000002
      0.20507876	39.829178749999997
      0.208681327	40.068846100000002
      0.21233381500000001	40.309351300000003
      0.216038808	40.550950149999998
      0.21979905799999999	40.793910310000001
      0.22361749	41.038513199999997
      0.227497227	41.285056060000002
      0.2314416	41.53385428
      0.23545417299999999	41.785244059999997
      0.23953876299999999	42.039585369999998
      0.24369946200000001	42.297265359999997
      0.247940667	42.558702250000003
      0.25226710400000002	42.824349750000003
      0.25668386300000001	43.0947022
      0.26119642799999998	43.370300520000001
      0.26581071499999998	43.651739030000002
      0.27054201700000002	43.94020278
      0.275438138	44.23873004
      0.28051031599999998	44.548036490000001
      0.28576849199999999	44.868763260000001
      0.29122336399999998	45.201605100000002
      0.296886504	45.547319020000003
      0.30277045699999999	45.906731970000003
      0.30888884599999999	46.280749559999997
      0.31525650100000002	46.670366299999998
      0.321889598	47.076677459999999
      0.328805825	47.50089294
      0.33602457000000002	47.944353649999996
      0.34356714500000002	48.408550759999997
      0.351457032	48.895148689999999
      0.35972019	49.406012390000001
      0.36838539799999998	49.943240269999997
      0.37748466600000002	50.509203810000002
      0.38705371900000002	51.106595769999998
      0.39713256899999999	51.738489119999997
      0.40776619800000002	52.408409570000003
      0.41900536300000002	53.120425429999997
      0.43090757000000002	53.879259759999997
      0.44353822799999998	54.690431349999997
      0.45697202599999998	55.560433060000001
      0.47129457299999999	56.49695913
      0.486604327	57.509196449999997
      0.503014823	58.60819978
      0.520657166	59.807376320000003
      0.53968265500000001	61.123111049999999
      0.56026517099999995	62.575567960000001
      0.58260257699999995	64.189698669999999
      0.60691558199999995	65.996464399999994
      0.63344113800000001	68.034201780000004
      0.662415215	70.349880479999996
      0.69403682899999997	72.999622560000006
      0.72840307800000004	76.047204840000006
      0.76540934699999996	79.558509650000005
      0.80463064699999998	83.589963030000007
      0.84524547999999999	88.171938179999998
      0.88609953900000005	93.294734669999997
      0.92594964300000004	98.90894376
      0.963771241	104.9435902
      0.99893980100000002	111.3300564
      1.0312218310000001	118.0174305
      1.0606584889999999	124.9760964
      1.0874410889999999	132.19454709999999
      1.1118223309999999	139.6744898
      1.1340651580000001	147.42664859999999
      1.1544176930000001	155.46782519999999
      1.173103241	163.8190534
      1.1903180360000001	172.50453999999999
      1.2062325739999999	181.55112829999999
      1.220994358	190.98810510000001
      1.234730984	200.84723579999999
      1.2475531	211.16296399999999
      1.2595570490000001	221.97273730000001
      1.270827143	233.31744900000001
      1.281437594	245.2419931
      1.291454146	257.79594609999998
      1.3009354369999999	271.03439809999998
      1.309934159	285.01896390000002
      1.318498043	299.81902289999999
      1.326670706	315.51324579999999
      1.3344924010000001	332.19149570000002
      1.3420006879999999	349.95721329999998
      1.3492310569999999	368.93044570000001
      1.356217531	389.25173360000002
      1.362993272	411.08716509999999
      1.3695912379999999	434.63503709999998
      1.3760449050000001	460.1347695
      1.382389146	487.87903890000001
      1.3886613240000001	518.23060969999995
      1.394902732	551.64618570000005
      1.401160583	588.71104339999999
      1.4074908660000001	630.19074279999995
      1.4139626249999999	677.11087850000001
      1.420664664	730.8848299
      1.4277165590000001	793.52783980000004
      1.435287779	868.03580320000003
      1.4436331710000001	959.10175079999999
      1.453164339	1074.5891859999999
      1.464608755	1228.9034079999999
      1.479413587	1451.8548430000001
      1.5007295060000001	1812.597843
      1.531321148	2396.2922779999999
      1.5749716949999999	3340.7297119999998
      1.6351726849999999	4868.8615820000005
      1.6746062129999999	6056.7860730000002
      1.7053540309999999	7126.7301200000002
      1.7307497590000001	8135.9466300000004
      1.752580204	9119.3875740000003
      1.771845345	10098.25848
      1.789165838	11087.22133
      1.804957089	12097.58993
      1.819514077	13138.977849999999
      1.8330565510000001	14220.25051
      1.845754994	15350.15127
      1.8577465099999999	16537.778849999999
      1.869145125	17793.012470000001
      1.8800488470000001	19126.948680000001
      1.8905448170000001	20552.403480000001
      1.9007133519999999	22084.53774
      1.9106314310000001	23741.68173
      1.920376064	25546.46932
      1.930027954	27527.455720000002
      1.9396760099999999	29721.505959999999
      1.9494234969999999	32177.45292
      1.959397184	34961.935420000002
      1.969762051	38169.180130000001
      1.980746793	41938.394229999998
      1.9926918389999999	46487.096960000003
      2.0061495709999999	52181.595710000001
      2.022124024	59707.652569999998
      2.042772002	70576.241299999994
      2.0725625070000002	88161.987269999998
      2.1158769670000002	116616.322
      2.1803765140000002	162656.4026
      2.2792825830000001	237150.818
      2.3747656959999999	310949.48619999998
  <EndBlock>
  <BeginBlock>
    <BlockName> = "ShaftAir"
    <Mu_x> = 1
    <Mu_y> = 1
    <H_c> = 0
    <H_cAngle> = 0
    <J_re> = 0
    <J_im> = 0
    <Sigma> = 0
    <d_lam> = 0
    <Phi_h> = 0
    <Phi_hx> = 0
    <Phi_hy> = 0
    <LamType> = 0
    <LamFill> = 1
    <NStrands> = 0
    <WireD> = 0
    <BHPoints> = 3
      -100	-7.9577471545947675e-011
      0	0
      100	7.9577471545947675e-011
  <EndBlock>
  <BeginBlock>
    <BlockName> = "Copper"
    <Mu_x> = 1
    <Mu_y> = 1
    <H_c> = 0
    <H_cAngle> = 0
    <J_re> = 0
    <J_im> = 0
    <Sigma> = 58
    <d_lam> = 0
    <Phi_h> = 0
    <Phi_hx> = 0
    <Phi_hy> = 0
    <LamType> = 0
    <LamFill> = 1
    <NStrands> = 0
    <WireD> = 0
    <BHPoints> = 0
  <EndBlock>
  <BeginBlock>
    <BlockName> = "Aluminium"
    <Mu_x> = 1
    <Mu_y> = 1
    <H_c> = 0
    <H_cAngle> = 0
    <J_re> = 0
    <J_im> = 0
    <Sigma> = 29
    <d_lam> = 0
    <Phi_h> = 0
    <Phi_hx> = 0
    <Phi_hy> = 0
    <LamType> = 0
    <LamFill> = 1
    <NStrands> = 0
    <WireD> = 0
    <BHPoints> = 0
  <EndBlock>
  <BeginBlock>
    <BlockName> = "BMN-52UH"
    <Mu_x> = 1.05
    <Mu_y> = 1.05
    <H_c> = 1098926.9880154678
    <H_cAngle> = 0
    <J_re> = 0
    <J_im> = 0
    <Sigma> = 0.66600000000000004
    <d_lam> = 0
    <Phi_h> = 0
    <Phi_hx> = 0
    <Phi_hy> = 0
    <LamType> = 0
    <LamFill> = 1
    <NStrands> = 0
    <WireD> = 0
    <BHPoints> = 0
  <EndBlock>
  <BeginBlock>
    <BlockName> = "DW235"
    <Mu_x> = 1
    <Mu_y> = 1
    <H_c> = 0
    <H_cAngle> = 0
    <J_re> = 0
    <J_im> = 0
    <Sigma> = 0
    <d_lam> = 0
    <Phi_h> = 0
    <Phi_hx> = 0
    <Phi_hy> = 0
    <LamType> = 0
    <LamFill> = 1
    <NStrands> = 0
    <WireD> = 0
    <BHPoints> = 0
  <EndBlock>
  <BeginBlock>
    <BlockName> = "Air"
    <Mu_x> = 1
    <Mu_y> = 1
    <H_c> = 0
    <H_cAngle> = 0
    <J_re> = 0
    <J_im> = 0
    <Sigma> = 0
    <d_lam> = 0
    <Phi_h> = 0
    <Phi_hx> = 0
    <Phi_hy> = 0
    <LamType> = 0
    <LamFill> = 1
    <NStrands> = 0
    <WireD> = 0
    <BHPoints> = 0
  <EndBlock>
  <BeginBlock>
    <BlockName> = "BMN-52UH_1"
    <Mu_x> = 1.05
    <Mu_y> = 1.05
    <H_c> = 1098926.9880154678
    <H_cAngle> = 0
    <J_re> = 0
    <J_im> = 0
    <Sigma> = 0.66600000000000004
    <d_lam> = 0
    <Phi_h> = 0
    <Phi_hx> = 0
    <Phi_hy> = 0
    <LamType> = 0
    <LamFill> = 1
    <NStrands> = 0
    <WireD> = 0
    <BHPoints> = 0
  <EndBlock>
  <BeginBlock>
    <BlockName> = "BMN-52UH_2"
    <Mu_x> = 1.05
    <Mu_y> = 1.05
    <H_c> = 1098926.9880154678
    <H_cAngle> = 0
    <J_re> = 0
    <J_im> = 0
    <Sigma> = 0.66600000000000004
    <d_lam> = 0
    <Phi_h> = 0
    <Phi_hx> = 0
    <Phi_hy> = 0
    <LamType> = 0
    <LamFill> = 1
    <NStrands> = 0
    <WireD> = 0
    <BHPoints> = 0
  <EndBlock>
  <BeginBlock>
    <BlockName> = "BMN-52UH_3"
    <Mu_x> = 1.05
    <Mu_y> = 1.05
    <H_c> = 1098926.9880154678
    <H_cAngle> = 0
    <J_re> = 0
    <J_im> = 0
    <Sigma> = 0.66600000000000004
    <d_lam> = 0
    <Phi_h> = 0
    <Phi_hx> = 0
    <Phi_hy> = 0
    <LamType> = 0
    <LamFill> = 1
    <NStrands> = 0
    <WireD> = 0
    <BHPoints> = 0
  <EndBlock>
  <BeginBlock>
    <BlockName> = "BMN-52UH_4"
    <Mu_x> = 1.05
    <Mu_y> = 1.05
    <H_c> = 1098926.9880154678
    <H_cAngle> = 0
    <J_re> = 0
    <J_im> = 0
    <Sigma> = 0.66600000000000004
    <d_lam> = 0
    <Phi_h> = 0
    <Phi_hx> = 0
    <Phi_hy> = 0
    <LamType> = 0
    <LamFill> = 1
    <NStrands> = 0
    <WireD> = 0
    <BHPoints> = 0
  <EndBlock>
  <BeginBlock>
    <BlockName> = "BMN-52UH_5"
    <Mu_x> = 1.05
    <Mu_y> = 1.05
    <H_c> = 1098926.9880154678
    <H_cAngle> = 0
    <J_re> = 0
    <J_im> = 0
    <Sigma> = 0.66600000000000004
    <d_lam> = 0
    <Phi_h> = 0
    <Phi_hx> = 0
    <Phi_hy> = 0
    <LamType> = 0
    <LamFill> = 1
    <NStrands> = 0
    <WireD> = 0
    <BHPoints> = 0
  <EndBlock>
  <BeginBlock>
    <BlockName> = "BMN-52UH_6"
    <Mu_x> = 1.05
    <Mu_y> = 1.05
    <H_c> = 1098926.9880154678
    <H_cAngle> = 0
    <J_re> = 0
    <J_im> = 0
    <Sigma> = 0.66600000000000004
    <d_lam> = 0
    <Phi_h> = 0
    <Phi_hx> = 0
    <Phi_hy> = 0
    <LamType> = 0
    <LamFill> = 1
    <NStrands> = 0
    <WireD> = 0
    <BHPoints> = 0
  <EndBlock>
  <BeginBlock>
    <BlockName> = "BMN-52UH_7"
    <Mu_x> = 1.05
    <Mu_y> = 1.05
    <H_c> = 1098926.9880154678
    <H_cAngle> = 0
    <J_re> = 0
    <J_im> = 0
    <Sigma> = 0.66600000000000004
    <d_lam> = 0
    <Phi_h> = 0
    <Phi_hx> = 0
    <Phi_hy> = 0
    <LamType> = 0
    <LamFill> = 1
    <NStrands> = 0
    <WireD> = 0
    <BHPoints> = 0
  <EndBlock>
  <BeginBlock>
    <BlockName> = "BMN-52UH_8"
    <Mu_x> = 1.05
    <Mu_y> = 1.05
    <H_c> = 1098926.9880154678
    <H_cAngle> = 0
    <J_re> = 0
    <J_im> = 0
    <Sigma> = 0.66600000000000004
    <d_lam> = 0
    <Phi_h> = 0
    <Phi_hx> = 0
    <Phi_hy> = 0
    <LamType> = 0
    <LamFill> = 1
    <NStrands> = 0
    <WireD> = 0
    <BHPoints> = 0
  <EndBlock>
[CircuitProps]  = 6
  <BeginCircuit>
    <CircuitName> = "fase1"
    <TotalAmps_re> = 0
    <TotalAmps_im> = 0
    <CircuitType> = 1
  <EndCircuit>
  <BeginCircuit>
    <CircuitName> = "fase2"
    <TotalAmps_re> = 0
    <TotalAmps_im> = 0
    <CircuitType> = 1
  <EndCircuit>
  <BeginCircuit>
    <CircuitName> = "fase3"
    <TotalAmps_re> = 0
    <TotalAmps_im> = 0
    <CircuitType> = 1
  <EndCircuit>
  <BeginCircuit>
    <CircuitName> = "fase1n"
    <TotalAmps_re> = 0
    <TotalAmps_im> = 0
    <CircuitType> = 1
  <EndCircuit>
  <BeginCircuit>
    <CircuitName> = "fase2n"
    <TotalAmps_re> = 0
    <TotalAmps_im> = 0
    <CircuitType> = 1
  <EndCircuit>
  <BeginCircuit>
    <CircuitName> = "fase3n"
    <TotalAmps_re> = 0
    <TotalAmps_im> = 0
    <CircuitType> = 1
  <EndCircuit>
[NumPoints] = 213
723.9274756001646	66.988866774580671	0	2
724.71078511222549	57.035975742541432	0	2
724.46356273665378	67.073774635658694	0	2
729.45670777632006	73.552567066742526	0	2
729.38088564470729	73.611002477310223	0	2
717.84363543022664	71.783681559205576	0	2
719.03943316921038	56.58963066462303	0	2
709.50713560331201	78.662065166570528	0	2
711.29225954552442	55.979914877372273	0	2
719.87943936490501	80.304876692726523	0	2
727.54862613003763	90.498979321702819	0	2
726.4530807998276	91.323175629442076	0	2
698.96851045880658	86.970047338419107	0	2
701.46833575601477	55.206755307422895	0	2
683.49749473061138	59.356955426479004	0	2
686.55634324107803	56.744451993930646	0	2
692.58013866652675	57.218534975475777	0	2
695.1926420990751	60.277383485942543	0	2
692.69726572548529	91.984146582588238	0	2
716.93659336257952	95.823278924232469	0	2
725.27876447478036	107.18107316084941	0	2
723.21685980831023	108.69551876408011	0	2
680.1512834105979	101.87460154907488	0	2
723.9388578887839	66.844241085017316	0	2
718.26750594576879	66.397896007098907	0	2
699.68321181380236	77.888905596621157	0	2
681.00211835702157	91.063718523124692	0	2
695.50669033873362	92.429115727591565	0	2
693.67150896486635	104.0159949065492	0	2
716.22839172441968	95.711110804135615	0	2
714.39321035055241	107.29798998309323	0	2
725.49409462428639	47.083084710502192	0	2
726.03686415436528	47.083084710502192	0	2
731.98204172100748	41.465156938333152	0	2
731.91629439784595	41.395579770040477	0	2
720.23523090819413	41.395579770040484	0	2
713.07738348773682	33.297764588174012	0	2
723.57897932042943	33.297764588174019	0	2
732.74845466152658	24.428893407601045	0	2
731.79533002077414	23.443463276426669	0	2
703.96816105322296	23.443463276426687	0	2
686.98048337251782	51.355240647029369	0	2
684.36797993996947	48.296392136562602	0	2
693.00427879796655	51.8293236285745	0	2
696.0631273084332	49.216820196026141	0	2
698.558503682023	17.510057099380447	0	2
723.0999775871303	17.510057099380447	0	2
733.11619319534282	7.5970992322064603	0	2
731.31658548462553	5.7787460139667175	0	2
687.71419125998295	5.7787460139667246	0	2
725.48271233566709	47.227710400065547	0	2
719.81136039265198	46.781365322147145	0	2
703.25345969822718	32.524605018224634	0	2
686.86335631355928	16.589629039916908	0	2
701.40294812646755	17.510057099380447	0	2
701.40294812646755	5.7787460139667175	0	2
722.38294812646745	17.510057099380454	0	2
722.38294812646745	5.7787460139667175	0	2
736	0	0	20
247.11000000000001	0	0	2
726.93861867802138	115.13576626960992	0	20
244.0676658444645	38.656520656091452	0	2
0	0	0	2
800	0	0	1
740.97777777777776	0	0	20
790.15067247611023	125.1475720321847	0	1
731.8551117512061	115.91446227336573	0	20
748.04275265246315	8.3063552211539111	0	1
748.05827032890147	6.5282056249440217	0	1
748.44253998099737	9.8522181195715142	0	1
779.6827281500241	10.397517632431612	0	1
781.55080175285218	8.5819194150905531	0	1
781.57023906695622	6.8206601455290663	0	1
781.58154292586312	5.0593298963793911	0	1
779.74544039770876	3.2114058236695668	0	1
748.50049347192692	3.2114058236695664	0	1
748.07378800533979	4.7500560287341331	0	1
764.84030906427665	3.2114058236695664	0	1
764.77986694028868	10.137387222399465	0	1
740.93191231067351	8.2442998576099171	0	1
740.96294766355015	4.6880006651901409	0	1
747.78385623067584	21.360236274776121	0	1
747.83040453315607	19.582628320158555	0	1
748.15660364206394	22.912840981732792	0	1
779.38251699038881	24.003273903938936	0	1
781.28199263457475	22.220554590771741	0	1
781.33216520089559	20.459902797433653	0	1
781.37420678954845	18.699038086952072	0	1
779.57063463068471	16.819351054447267	0	1
748.33044646165797	16.27405154158717	0	1
747.87695283563653	17.805020365540997	0	1
764.66777342094929	16.55922064441512	0	1
764.48646546024179	23.483092322117479	0	1
740.67518191973852	21.174089086809019	0	1
740.76827852469921	17.618873177573899	0	1
747.29717760233552	34.407610793507772	0	1
747.37474235179411	32.631085957085595	0	1
747.64277155410525	35.966484370569361	0	1
778.84489836603018	37.601718545690183	0	1
780.77519745289226	35.852421170269238	0	1
780.85608998837995	34.092913164746612	0	1
780.92885650050368	32.333050369381816	0	1
779.15836409648171	30.422172947961073	0	1
747.93245074815673	29.331740025754932	0	1
747.45230710125281	30.854561120663412	0	1
764.26231256633469	29.901991366139612	0	1
763.96019399706904	36.821644244428349	0	1
740.19283469330901	34.097428483354278	0	1
740.34796419222619	30.544378810509912	0	1
746.58286501446742	47.444504420677724	0	1
746.69142258393003	45.669603849125679	0	1
746.90120023535314	49.009172019851505	0	1
778.07003604078932	51.188709339716397	0	1
780.03057058252625	49.473366754968069	0	1
780.1421584465312	47.715538500444126	0	1
780.24562771674118	45.957213691451756	0	1
778.50875437669833	44.015727952888724	0	1
747.30662756477341	42.380493777767903	0	1
746.79998015339288	43.894703277573633	0	1
763.6240500077372	43.23565365162689	0	1
763.20121285815617	50.148979937203102	0	1
739.48501755902305	47.0103814728743	0	1
739.70213269794851	43.46058032977021	0	1
745.64113605360524	60.466945992195896	0	1
745.78065337538476	58.694210337421922	0	1
745.93211557561494	62.03693100057388	0	1
777.0581660452367	64.760107557001561	0	1
779.04833884403513	63.079242272894064	0	1
779.19058804581277	61.323629220883603	0	1
779.32472855636695	59.567378001033759	0	1
777.62200334874808	57.59587534069199	0	1
746.45316754331191	55.416338020827098	0	1
745.92017069716439	56.921474682647961	0	1
762.75318016611493	56.556145938178695	0	1
762.20975323651044	63.461039764884887	0	1
738.55194612483638	59.909014644797892	0	1
738.83098076839542	56.363543335249958	0	1
744.47227757951327	73.470968746208371	0	1
744.64271215528197	71.700938000665801	0	1
744.73581276746563	75.045792931148227	0	1
775.80959660477538	78.311779218179609	0	1
777.82880143472153	76.665903242561399	0	1
778.00166864378684	74.913040169807061	0	1
778.16643953418657	73.159397510234484	0	1
776.4983811255845	71.158478466922702	0	1
745.37233065596274	68.435301910495028	0	1
744.81314673105055	69.93090725512323	0	1
761.64996831685835	69.859410674806028	0	1
760.98611714033746	76.753768745093396	0	1
737.39390461334665	72.78939895050901	0	1
737.73477376488404	69.24933745942387	0	1
743.07664563780565	86.452611531411534	0	1
743.2779455515406	84.685824863612112	0	1
743.31265621632963	88.031795186210843	0	1
774.32470804575178	91.839596352784568	0	1
776.37232983749391	90.22921103542177	0	1
776.57576239682066	88.479631880995882	0	1
776.77111347625623	86.729131958242604	0	1
775.13822997342129	84.699406031284738	0	1
744.06444613611166	81.433419744253371	0	1
743.47924546527554	82.919038195812718	0	1
760.31475050898337	83.141395558198539	0	1
759.53067730104522	90.023117783811699	0	1
736.01124577521659	85.647610900173078	0	1
736.41384560268648	82.114037564574261	0	1
741.4546653514916	99.407920013656934	0	1
741.68676928528907	97.644915603934948	0	1
741.66307942947878	100.9909821036766	0	1
772.60395267960553	105.33943825667032	0	1
774.67936770771018	103.76503413653076	0	1
774.91330364977011	102.01927183919231	0	1
775.1391754124104	100.27244787249228	0	1
773.54196420747553	98.214533336068072	0	1
742.52991237805338	94.406732169494362	0	1
741.91887321908666	95.881911194212975	0	1
758.74793346276897	96.398054767095218	0	1
757.84387705970823	103.26504490877953	0	1
734.40439078172244	98.479733757869909	0	1
734.86859864931739	94.95372493842595	0	1
739.60683079147907	112.33294788048006	0	1
739.86966804423241	110.5742627570573	0	1
739.78758488398216	113.91940618967195	0	1
770.64785466509068	118.80719274721704	0	1
772.75043073803522	117.2692494030473	0	1
773.01479880367413	115.52783573890365	0	1
773.27112244679211	113.78521982775898	0	1
771.71007006576303	111.6997435425717	0	1
740.76919681563618	107.35128738957798	0	1
740.13250529698576	108.81557763363455	0	1
756.94999444586574	109.62535019468092	0	1
755.92623023202054	116.47551650071721	0	1
732.57382909646094	111.28185873466948	0	1
733.09950360196763	107.76448848782398	0	1
799.87815612511304	13.96192514982681	0	1
740.86492327321582	12.93184533877292	0	1
799.51266161527656	27.919597362000776	0	1
740.52639413610507	25.859751512182051	0	1
798.90362780365911	41.868764994355068	0	1
739.96229348570023	38.779780554771534	0	1
798.05124020785934	55.805178995300238	0	1
739.17279315252392	51.687996900535865	0	1
796.95575847339649	69.724594198126539	0	1
738.1581336260258	64.580468581731424	0	1
795.61751629461867	83.622770614122771	0	1
736.91862398132673	77.453268426591933	0	1
794.03692131305763	97.495474724117983	0	1
735.454641785072	90.302475255583047	0	1
792.21445499325625	111.33848076805235	0	1
733.76663298042047	103.1241750758316	0	1
739.31851851851854	0	0	20
730.21628072681119	115.65489693878047	0	20
737.65925925925922	0	0	20
728.57744970241629	115.39533160419518	0	20
[NumSegments] = 191
0	23	1.7777777777777779	0	0	2
2	0	1.7777777777777779	0	0	2
5	4	1.7777777777777779	0	0	2
6	24	1.7777777777777779	0	0	2
7	8	1.7777777777777779	0	0	2
9	7	1.7777777777777779	0	0	2
12	11	1.7777777777777779	0	0	2
13	25	1.7777777777777779	0	0	2
16	15	1.7777777777777779	0	0	2
18	17	1.7777777777777779	0	0	2
19	29	1.7777777777777779	0	0	2
22	28	1.7777777777777779	0	0	2
14	26	1.7777777777777779	0	0	2
1	6	1.7777777777777779	0	0	2
23	1	1.7777777777777779	0	0	2
24	5	1.7777777777777779	0	0	2
24	23	1.7777777777777779	0	0	2
8	13	1.7777777777777779	0	0	2
25	12	1.7777777777777779	0	0	2
25	7	1.7777777777777779	0	0	2
17	14	1.7777777777777779	0	0	2
26	22	1.7777777777777779	0	0	2
26	18	1.7777777777777779	0	0	2
27	18	1.7777777777777779	0	0	2
28	30	1.7777777777777779	0	0	2
27	28	1.7777777777777779	0	0	2
29	27	1.7777777777777779	0	0	2
30	21	1.7777777777777779	0	0	2
30	29	1.7777777777777779	0	0	2
31	50	1.7777777777777779	0	0	2
32	31	1.7777777777777779	0	0	2
35	34	1.7777777777777779	0	0	2
6	51	1.7777777777777779	0	0	2
36	8	1.7777777777777779	0	0	2
37	36	1.7777777777777779	0	0	2
40	39	1.7777777777777779	0	0	2
13	52	1.7777777777777779	0	0	2
43	41	1.7777777777777779	0	0	2
45	44	1.7777777777777779	0	0	2
46	56	1.7777777777777779	0	0	2
49	55	1.7777777777777779	0	0	2
42	53	1.7777777777777779	0	0	2
50	1	1.7777777777777779	0	0	2
51	35	1.7777777777777779	0	0	2
51	50	1.7777777777777779	0	0	2
52	40	1.7777777777777779	0	0	2
52	36	1.7777777777777779	0	0	2
44	42	1.7777777777777779	0	0	2
53	49	1.7777777777777779	0	0	2
53	45	1.7777777777777779	0	0	2
54	45	1.7777777777777779	0	0	2
55	57	1.7777777777777779	0	0	2
54	55	1.7777777777777779	0	0	2
56	54	1.7777777777777779	0	0	2
57	48	1.7777777777777779	0	0	2
57	56	1.7777777777777779	0	0	2
58	59	-1	4	0	2
61	60	-1	4	0	2
59	62	-1	2	0	2
62	61	-1	2	0	2
63	64	-1	10	0	1
66	65	-1	10	0	1
67	68	1.7777777777777779	0	0	1
69	67	1.7777777777777779	0	0	1
70	78	1.7777777777777779	0	0	1
72	71	1.7777777777777779	0	0	1
73	72	1.7777777777777779	0	0	1
75	77	1.7777777777777779	0	0	1
76	75	1.7777777777777779	0	0	1
68	76	1.7777777777777779	0	0	1
77	74	1.7777777777777779	0	0	1
78	69	1.7777777777777779	0	0	1
77	78	1.7777777777777779	0	0	1
67	79	1.7777777777777779	0	0	1
80	76	1.7777777777777779	0	0	1
81	82	1.7777777777777779	0	0	1
83	81	1.7777777777777779	0	0	1
84	92	1.7777777777777779	0	0	1
86	85	1.7777777777777779	0	0	1
87	86	1.7777777777777779	0	0	1
89	91	1.7777777777777779	0	0	1
90	89	1.7777777777777779	0	0	1
82	90	1.7777777777777779	0	0	1
91	88	1.7777777777777779	0	0	1
92	83	1.7777777777777779	0	0	1
91	92	1.7777777777777779	0	0	1
81	93	1.7777777777777779	0	0	1
94	90	1.7777777777777779	0	0	1
95	96	1.7777777777777779	0	0	1
97	95	1.7777777777777779	0	0	1
98	106	1.7777777777777779	0	0	1
100	99	1.7777777777777779	0	0	1
101	100	1.7777777777777779	0	0	1
103	105	1.7777777777777779	0	0	1
104	103	1.7777777777777779	0	0	1
96	104	1.7777777777777779	0	0	1
105	102	1.7777777777777779	0	0	1
106	97	1.7777777777777779	0	0	1
105	106	1.7777777777777779	0	0	1
95	107	1.7777777777777779	0	0	1
108	104	1.7777777777777779	0	0	1
109	110	1.7777777777777779	0	0	1
111	109	1.7777777777777779	0	0	1
112	120	1.7777777777777779	0	0	1
114	113	1.7777777777777779	0	0	1
115	114	1.7777777777777779	0	0	1
117	119	1.7777777777777779	0	0	1
118	117	1.7777777777777779	0	0	1
110	118	1.7777777777777779	0	0	1
119	116	1.7777777777777779	0	0	1
120	111	1.7777777777777779	0	0	1
119	120	1.7777777777777779	0	0	1
109	121	1.7777777777777779	0	0	1
122	118	1.7777777777777779	0	0	1
123	124	1.7777777777777779	0	0	1
125	123	1.7777777777777779	0	0	1
126	134	1.7777777777777779	0	0	1
128	127	1.7777777777777779	0	0	1
129	128	1.7777777777777779	0	0	1
131	133	1.7777777777777779	0	0	1
132	131	1.7777777777777779	0	0	1
124	132	1.7777777777777779	0	0	1
133	130	1.7777777777777779	0	0	1
134	125	1.7777777777777779	0	0	1
133	134	1.7777777777777779	0	0	1
123	135	1.7777777777777779	0	0	1
136	132	1.7777777777777779	0	0	1