[Format]      =  4.0
[Frequency]   =  0
[Precision]   =  1e-008
[MinAngle]    =  15
[DoSmartMesh] =  1
[Depth]       =  300
[LengthUnits] =  millimeters
[ProblemType] =  planar
[Coordinates] =  cartesian
[ACSolver]    =  0
[PrevType]    =  0
[PrevSoln]    =  ""
[Comment]     =  "Add comments here."
[PointProps]   = 0
[BdryProps]   = 11
  <BeginBdry>
    <BdryName> = "A=0"
    <BdryType> = 0
    <A_0> = 0
    <A_1> = 0
    <A_2> = 0
    <Phi> = 0
    <c0> = 0
    <c0i> = 0
    <c1> = 0
    <c1i> = 0
    <Mu_ssd> = 0
    <Sigma_ssd> = 0
    <innerangle> = 0
    <outerangle> = 0
  <EndBdry>
  <BeginBdry>
    <BdryName> = "APr1"
    <BdryType> = 5
    <A_0> = 0
    <A_1> = 0
    <A_2> = 0
    <Phi> = 0
    <c0> = 0
    <c0i> = 0
    <c1> = 0
    <c1i> = 0
    <Mu_ssd> = 0
    <Sigma_ssd> = 0
    <innerangle> = 0
    <outerangle> = 0
  <EndBdry>
  <BeginBdry>
    <BdryName> = "APr2"
    <BdryType> = 5
    <A_0> = 0
    <A_1> = 0
    <A_2> = 0
    <Phi> = 0
    <c0> = 0
    <c0i> = 0
    <c1> = 0
    <c1i> = 0
    <Mu_ssd> = 0
    <Sigma_ssd> = 0
    <innerangle> = 0
    <outerangle> = 0
  <EndBdry>
  <BeginBdry>
    <BdryName> = "APr3"
    <BdryType> = 5
    <A_0> = 0
    <A_1> = 0
    <A_2> = 0
    <Phi> = 0
    <c0> = 0
    <c0i> = 0
    <c1> = 0
    <c1i> = 0
    <Mu_ssd> = 0
    <Sigma_ssd> = 0
    <innerangle> = 0
    <outerangle> = 0
  <EndBdry>
  <BeginBdry>
    <BdryName> = "APg1"
    <BdryType> = 5
    <A_0> = 0
    <A_1> = 0
    <A_2> = 0
    <Phi> = 0
    <c0> = 0
    <c0i> = 0
    <c1> = 0
    <c1i> = 0
    <Mu_ssd> = 0
    <Sigma_ssd> = 0
    <innerangle> = 0
    <outerangle> = 0
  <EndBdry>
  <BeginBdry>
    <BdryName> = "APg2"
    <BdryType> = 5
    <A_0> = 0
    <A_1> = 0
    <A_2> = 0
    <Phi> = 0
    <c0> = 0
    <c0i> = 0
    <c1> = 0
    <c1i> = 0
    <Mu_ssd> = 0
    <Sigma_ssd> = 0
    <innerangle> = 0
    <outerangle> = 0
  <EndBdry>
  <BeginBdry>
    <BdryName> = "APg3"
    <BdryType> = 5
    <A_0> = 0
    <A_1> = 0
    <A_2> = 0
    <Phi> = 0
    <c0> = 0
    <c0i> = 0
    <c1> = 0
    <c1i> = 0
    <Mu_ssd> = 0
    <Sigma_ssd> = 0
    <innerangle> = 0
    <outerangle> = 0
  <EndBdry>
  <BeginBdry>
    <BdryName> = "APs1"
    <BdryType> = 5
    <A_0> = 0
    <A_1> = 0
    <A_2> = 0
    <Phi> = 0
    <c0> = 0
    <c0i> = 0
    <c1> = 0
    <c1i> = 0
    <Mu_ssd> = 0
    <Sigma_ssd> = 0
    <innerangle> = 0
    <outerangle> = 0
  <EndBdry>
  <BeginBdry>
    <BdryName> = "APs2"
    <BdryType> = 5
    <A_0> = 0
    <A_1> = 0
    <A_2> = 0
    <Phi> = 0
    <c0> = 0
    <c0i> = 0
    <c1> = 0
    <c1i> = 0
    <Mu_ssd> = 0
    <Sigma_ssd> = 0
    <innerangle> = 0
    <outerangle> = 0
  <EndBdry>
  <BeginBdry>
    <BdryName> = "APs3"
    <BdryType> = 5
    <A_0> = 0
    <A_1> = 0
    <A_2> = 0
    <Phi> = 0
    <c0> = 0
    <c0i> = 0
    <c1> = 0
    <c1i> = 0
    <Mu_ssd> = 0
    <Sigma_ssd> = 0
    <innerangle> = 0
    <outerangle> = 0
  <EndBdry>
  <BeginBdry>
    <BdryName> = "AGap"
    <BdryType> = 7
    <A_0> = 0
    <A_1> = 0
    <A_2> = 0
    <Phi> = 0
    <c0> = 0
    <c0i> = 0
    <c1> = 0
    <c1i> = 0
    <Mu_ssd> = 0
    <Sigma_ssd> = 0
    <innerangle> = 0
    <outerangle> = 0
  <EndBdry>
[BlockProps]  = 12
  <BeginBlock>
    <BlockName> = "M270-35A"
    <Mu_x> = 1
    <Mu_y> = 1
    <H_c> = 0
    <H_cAngle> = 0
    <J_re> = 0
    <J_im> = 0
    <Sigma> = 0
    <d_lam> = 0
    <Phi_h> = 0
    <Phi_hx> = 0
    <Phi_hy> = 0
    <LamType> = 0
    <LamFill> = 1
    <NStrands> = 0
    <WireD> = 0
    <BHPoints> = 200
      0	0
      0.0045422769999999999	3.2767874890000002
      0.0090353559999999996	6.114592773
      0.013222249	8.4602422570000009
      0.017196487	10.462328400000001
      0.020991169	12.199266809999999
      0.024640190999999999	13.72982376
      0.028168996000000002	15.09561901
      0.031597466999999997	16.327217480000002
      0.034941272000000002	17.447599879999999
      0.038212956999999999	18.47443998
      0.041422729999999998	19.421601849999998
      0.044579012000000001	20.300151339999999
      0.047688851999999997	21.119056130000001
      0.050758219	21.885681389999998
      0.053792226999999998	22.60614816
      0.056795300999999999	23.285597330000002
      0.059771310000000001	23.928387470000001
      0.062723663999999998	24.538245379999999
      0.065655396000000005	25.11838217
      0.068569221	25.67158405
      0.071467592999999996	26.200284
      0.074352739000000001	26.70661905
      0.077226698999999996	27.19247648
      0.080091349000000006	27.65953137
      0.082948429000000004	28.109277410000001
      0.085799557999999998	28.54305239
      0.088646256000000007	28.96205934
      0.091489953999999998	29.36738437
      0.094332005999999996	29.760011540000001
      0.097173704999999999	30.140835630000002
      0.100016285	30.510672870000001
      0.102860934	30.870270300000001
      0.105708802	31.220313650000001
      0.108561001	31.561434299999998
      0.11141862	31.894215259999999
      0.114282722	32.21919639
      0.117154355	32.536878999999999
      0.120034552	32.847729870000002
      0.12292433699999999	33.152184810000001
      0.12582473199999999	33.45065185
      0.12873675200000001	33.743513989999997
      0.13166142	34.031131799999997
      0.13459976100000001	34.313845620000002
      0.137552811	34.591977620000002
      0.14052161499999999	34.865833639999998
      0.14350723800000001	35.135704879999999
      0.14651076099999999	35.401869419999997
      0.14953328699999999	35.664593680000003
      0.15257594699999999	35.924133650000002
      0.155639899	36.180736189999998
      0.158726334	36.434640119999997
      0.161836481	36.686077320000003
      0.16497160599999999	36.93527375
      0.16813302299999999	37.182450420000002
      0.17132209400000001	37.427824389999998
      0.17454023399999999	37.671609650000001
      0.17778891699999999	37.914018050000003
      0.18106968000000001	38.155260249999998
      0.18438413100000001	38.395546590000002
      0.18773395400000001	38.635088090000004
      0.191120915	38.87409736
      0.19454686800000001	39.112789630000002
      0.19801376800000001	39.351383830000003
      0.20152367299999999	39.590103640000002
      0.20507876	39.829178749999997
      0.208681327	40.068846100000002
      0.21233381500000001	40.309351300000003
      0.216038808	40.550950149999998
      0.21979905799999999	40.793910310000001
      0.22361749	41.038513199999997
      0.227497227	41.285056060000002
      0.2314416	41.53385428
      0.23545417299999999	41.785244059999997
      0.23953876299999999	42.039585369999998
      0.24369946200000001	42.297265359999997
      0.247940667	42.558702250000003
      0.25226710400000002	42.824349750000003
      0.25668386300000001	43.0947022
      0.26119642799999998	43.370300520000001
      0.26581071499999998	43.651739030000002
      0.27054201700000002	43.94020278
      0.275438138	44.23873004
      0.28051031599999998	44.548036490000001
      0.28576849199999999	44.868763260000001
      0.29122336399999998	45.201605100000002
      0.296886504	45.547319020000003
      0.30277045699999999	45.906731970000003
      0.30888884599999999	46.280749559999997
      0.31525650100000002	46.670366299999998
      0.321889598	47.076677459999999
      0.328805825	47.50089294
      0.33602457000000002	47.944353649999996
      0.34356714500000002	48.408550759999997
      0.351457032	48.895148689999999
      0.35972019	49.406012390000001
      0.36838539799999998	49.943240269999997
      0.37748466600000002	50.509203810000002
      0.38705371900000002	51.106595769999998
      0.39713256899999999	51.738489119999997
      0.40776619800000002	52.408409570000003
      0.41900536300000002	53.120425429999997
      0.43090757000000002	53.879259759999997
      0.44353822799999998	54.690431349999997
      0.45697202599999998	55.560433060000001
      0.47129457299999999	56.49695913
      0.486604327	57.509196449999997
      0.503014823	58.60819978
      0.520657166	59.807376320000003
      0.53968265500000001	61.123111049999999
      0.56026517099999995	62.575567960000001
      0.58260257699999995	64.189698669999999
      0.60691558199999995	65.996464399999994
      0.63344113800000001	68.034201780000004
      0.662415215	70.349880479999996
      0.69403682899999997	72.999622560000006
      0.72840307800000004	76.047204840000006
      0.76540934699999996	79.558509650000005
      0.80463064699999998	83.589963030000007
      0.84524547999999999	88.171938179999998
      0.88609953900000005	93.294734669999997
      0.92594964300000004	98.90894376
      0.963771241	104.9435902
      0.99893980100000002	111.3300564
      1.0312218310000001	118.0174305
      1.0606584889999999	124.9760964
      1.0874410889999999	132.19454709999999
      1.1118223309999999	139.6744898
      1.1340651580000001	147.42664859999999
      1.1544176930000001	155.46782519999999
      1.173103241	163.8190534
      1.1903180360000001	172.50453999999999
      1.2062325739999999	181.55112829999999
      1.220994358	190.98810510000001
      1.234730984	200.84723579999999
      1.2475531	211.16296399999999
      1.2595570490000001	221.97273730000001
      1.270827143	233.31744900000001
      1.281437594	245.2419931
      1.291454146	257.79594609999998
      1.3009354369999999	271.03439809999998
      1.309934159	285.01896390000002
      1.318498043	299.81902289999999
      1.326670706	315.51324579999999
      1.3344924010000001	332.19149570000002
      1.3420006879999999	349.95721329999998
      1.3492310569999999	368.93044570000001
      1.356217531	389.25173360000002
      1.362993272	411.08716509999999
      1.3695912379999999	434.63503709999998
      1.3760449050000001	460.1347695
      1.382389146	487.87903890000001
      1.3886613240000001	518.23060969999995
      1.394902732	551.64618570000005
      1.401160583	588.71104339999999
      1.4074908660000001	630.19074279999995
      1.4139626249999999	677.11087850000001
      1.420664664	730.8848299
      1.4277165590000001	793.52783980000004
      1.435287779	868.03580320000003
      1.4436331710000001	959.10175079999999
      1.453164339	1074.5891859999999
      1.464608755	1228.9034079999999
      1.479413587	1451.8548430000001
      1.5007295060000001	1812.597843
      1.531321148	2396.2922779999999
      1.5749716949999999	3340.7297119999998
      1.6351726849999999	4868.8615820000005
      1.6746062129999999	6056.7860730000002
      1.7053540309999999	7126.7301200000002
      1.7307497590000001	8135.9466300000004
      1.752580204	9119.3875740000003
      1.771845345	10098.25848
      1.789165838	11087.22133
      1.804957089	12097.58993
      1.819514077	13138.977849999999
      1.8330565510000001	14220.25051
      1.845754994	15350.15127
      1.8577465099999999	16537.778849999999
      1.869145125	17793.012470000001
      1.8800488470000001	19126.948680000001
      1.8905448170000001	20552.403480000001
      1.9007133519999999	22084.53774
      1.9106314310000001	23741.68173
      1.920376064	25546.46932
      1.930027954	27527.455720000002
      1.9396760099999999	29721.505959999999
      1.9494234969999999	32177.45292
      1.959397184	34961.935420000002
      1.969762051	38169.180130000001
      1.980746793	41938.394229999998
      1.9926918389999999	46487.096960000003
      2.0061495709999999	52181.595710000001
      2.022124024	59707.652569999998
      2.042772002	70576.241299999994
      2.0725625070000002	88161.987269999998
      2.1158769670000002	116616.322
      2.1803765140000002	162656.4026
      2.2792825830000001	237150.818
      2.3747656959999999	310949.48619999998
  <EndBlock>
  <BeginBlock>
    <BlockName> = "M250-35A"
    <Mu_x> = 1
    <Mu_y> = 1
    <H_c> = 0
    <H_cAngle> = 0
    <J_re> = 0
    <J_im> = 0
    <Sigma> = 0
    <d_lam> = 0
    <Phi_h> = 0
    <Phi_hx> = 0
    <Phi_hy> = 0
    <LamType> = 0
    <LamFill> = 1
    <NStrands> = 0
    <WireD> = 0
    <BHPoints> = 200
      0	0
      0.0042969999999999996	2.893046
      0.0085299999999999994	5.3886940000000001
      0.012479000000000001	7.4534830000000003
      0.016226999999999998	9.215719
      0.019806000000000001	10.744738999999999
      0.023247	12.092207999999999
      0.026575999999999999	13.294746
      0.02981	14.379244
      0.032964	15.365919999999999
      0.036049999999999999	16.270323000000001
      0.039079000000000003	17.104651
      0.042056999999999997	17.878640000000001
      0.044991000000000003	18.600180000000002
      0.047888	19.275749999999999
      0.050750999999999998	19.910734999999999
      0.053586000000000002	20.50966
      0.056395000000000001	21.076357999999999
      0.059182999999999999	21.61411
      0.061950999999999999	22.12574
      0.064701999999999996	22.613700000000001
      0.067438999999999999	23.080131999999999
      0.070165000000000005	23.526914999999999
      0.072878999999999999	23.955711999999998
      0.075586	24.367995000000001
      0.078285999999999994	24.765082
      0.080979999999999996	25.148147999999999
      0.083670999999999995	25.518253999999999
      0.086359000000000005	25.876356000000001
      0.089046	26.223320999999999
      0.091732999999999995	26.559937000000001
      0.094421000000000005	26.886922999999999
      0.097112000000000004	27.204939
      0.099807000000000007	27.514588
      0.102506	27.816427999999998
      0.10521	28.110973000000001
      0.107921	28.398700999999999
      0.11064	28.680053000000001
      0.113368	28.955442000000001
      0.116105	29.225254
      0.118853	29.489851000000002
      0.121613	29.749571
      0.124385	30.004733999999999
      0.12717100000000001	30.255642000000002
      0.129972	30.502582
      0.13278799999999999	30.745826000000001
      0.13562199999999999	30.985634000000001
      0.13847200000000001	31.222252999999998
      0.141342	31.455922000000001
      0.144232	31.686869999999999
      0.147143	31.915319
      0.15007599999999999	32.141483999999998
      0.153033	32.365572999999998
      0.15601499999999999	32.587792
      0.159023	32.808340000000001
      0.16205800000000001	33.027416000000002
      0.16512199999999999	33.245213999999997
      0.16821700000000001	33.461928999999998
      0.171344	33.677753000000003
      0.17450399999999999	33.892882
      0.177699	34.107511000000002
      0.18093200000000001	34.321838
      0.18420300000000001	34.536062999999999
      0.18751599999999999	34.750393000000003
      0.19087100000000001	34.965038
      0.194272	35.180216000000001
      0.19772000000000001	35.396152000000001
      0.20121800000000001	35.613083000000003
      0.20476900000000001	35.831254000000001
      0.20837600000000001	36.050924000000002
      0.21204100000000001	36.272367000000003
      0.21576799999999999	36.495873000000003
      0.21956000000000001	36.721752000000002
      0.22342100000000001	36.950336999999998
      0.227355	37.181984999999997
      0.23136599999999999	37.417082000000001
      0.235459	37.65605
      0.23963899999999999	37.899346999999999
      0.24391099999999999	38.147472999999998
      0.24828	38.400982999999997
      0.25276999999999999	38.661422999999999
      0.25742100000000001	38.931215000000002
      0.262243	39.210946
      0.26724500000000001	39.501213999999997
      0.27243800000000001	39.802667
      0.27783400000000003	40.116010000000003
      0.28344399999999997	40.442014
      0.28928300000000001	40.781525999999999
      0.29536499999999999	41.135472999999998
      0.301705	41.504877
      0.30832300000000001	41.890867
      0.31523600000000002	42.294696999999999
      0.322467	42.717756999999999
      0.33003700000000002	43.161602999999999
      0.33797500000000003	43.627975999999997
      0.34630699999999998	44.118836999999999
      0.35506599999999999	44.636400999999999
      0.364288	45.183185000000002
      0.37401400000000001	45.762059999999998
      0.38428699999999999	46.376323999999997
      0.39515899999999998	47.029781
      0.40668900000000002	47.726851000000003
      0.41894199999999998	48.472701999999998
      0.43199399999999999	49.273418999999997
      0.445932	50.136220999999999
      0.46085599999999999	51.069738999999998
      0.476883	52.084378000000001
      0.494149	53.192788
      0.51280899999999996	54.410476000000003
      0.53304799999999997	55.756604000000003
      0.55507300000000004	57.255007999999997
      0.57912399999999997	58.935468
      0.60546199999999994	60.835194000000001
      0.63435799999999998	63.000315999999998
      0.66605599999999998	65.486806000000001
      0.70070900000000003	68.359548000000004
      0.73826899999999995	71.687292999999997
      0.77834099999999995	75.530902999999995
      0.82007600000000003	79.925031000000004
      0.86221800000000004	84.861114000000001
      0.90337299999999998	90.286100000000005
      0.942384	96.122534999999999
      0.97855499999999995	102.296091
      1.0116430000000001	108.752764
      1.0417110000000001	115.462129
      1.068983	122.413082
      1.0937460000000001	129.608115
      1.116287	137.05868100000001
      1.136876	144.78209200000001
      1.155751	152.799633
      1.1731199999999999	161.135536
      1.1891620000000001	169.816473
      1.2040310000000001	178.871407
      1.2178599999999999	188.33166199999999
      1.2307619999999999	198.231143
      1.2428380000000001	208.606694
      1.254173	219.49855400000001
      1.2648440000000001	230.95093399999999
      1.274918	243.01271700000001
      1.2844549999999999	255.738317
      1.2935080000000001	269.188714
      1.302127	283.43273799999997
      1.3103549999999999	298.54864300000003
      1.318235	314.626081
      1.3258030000000001	331.76858900000002
      1.3330979999999999	350.09676100000001
      1.3401540000000001	369.75233600000001
      1.3470040000000001	390.90355799999998
      1.353685	413.752275
      1.3602300000000001	438.54351500000001
      1.366676	465.57863900000001
      1.373065	495.23374999999999
      1.3794390000000001	527.98607000000004
      1.3858520000000001	564.452719
      1.3923669999999999	605.44946300000004
      1.39906	652.08284800000001
      1.406037	705.90077199999996
      1.4134370000000001	769.15093100000001
      1.421468	845.25171799999998
      1.4304490000000001	939.71601999999996
      1.4409160000000001	1062.1409619999999
      1.453867	1231.0420779999999
      1.4714210000000001	1487.5809200000001
      1.496648	1902.669486
      1.532797	2574.2968930000002
      1.5838000000000001	3661.012866
      1.6353310000000001	4953.8388219999997
      1.6706399999999999	5994.5159130000002
      1.69892	6952.5419910000001
      1.7226760000000001	7868.8254299999999
      1.7433129999999999	8769.296902
      1.7616510000000001	9670.4657779999998
      1.7782150000000001	10584.19298
      1.7933669999999999	11519.91821
      1.807366	12485.85331
      1.8204100000000001	13489.697770000001
      1.8326530000000001	14539.126319999999
      1.8442210000000001	15642.17215
      1.8552169999999999	16807.57634
      1.865734	18045.151389999999
      1.87585	19366.200540000002
      1.88564	20784.038649999999
      1.895176	22314.674029999998
      1.9045259999999999	23977.737270000001
      1.9137649999999999	25797.790300000001
      1.9229700000000001	27806.231749999999
      1.9322319999999999	30044.16647
      1.9416610000000001	32566.893940000002
      1.9513929999999999	35451.247199999998
      1.9616150000000001	38808.250959999998
      1.972596	42806.453809999999
      1.9847520000000001	47718.772470000004
      1.9987980000000001	54027.979319999999
      2.0161340000000001	62706.530469999998
      2.0401699999999998	76177.004910000003
      2.074945	97972.690400000007
      2.1261130000000001	133238.85029999999
      2.203535	190300.69570000001
      2.3041860000000001	267332.391
      2.3975240000000002	339990.4999
  <EndBlock>
  <BeginBlock>
    <BlockName> = "ShaftAir"
    <Mu_x> = 1
    <Mu_y> = 1
    <H_c> = 0
    <H_cAngle> = 0
    <J_re> = 0
    <J_im> = 0
    <Sigma> = 0
    <d_lam> = 0
    <Phi_h> = 0
    <Phi_hx> = 0
    <Phi_hy> = 0
    <LamType> = 0
    <LamFill> = 1
    <NStrands> = 0
    <WireD> = 0
    <BHPoints> = 3
      -100	-7.9577471545947675e-011
      0	0
      100	7.9577471545947675e-011
  <EndBlock>
  <BeginBlock>
    <BlockName> = "Copper"
    <Mu_x> = 1
    <Mu_y> = 1
    <H_c> = 0
    <H_cAngle> = 0
    <J_re> = 0
    <J_im> = 0
    <Sigma> = 58
    <d_lam> = 0
    <Phi_h> = 0
    <Phi_hx> = 0
    <Phi_hy> = 0
    <LamType> = 0
    <LamFill> = 1
    <NStrands> = 0
    <WireD> = 0
    <BHPoints> = 0
  <EndBlock>
  <BeginBlock>
    <BlockName> = "Aluminium"
    <Mu_x> = 1
    <Mu_y> = 1
    <H_c> = 0
    <H_cAngle> = 0
    <J_re> = 0
    <J_im> = 0
    <Sigma> = 29
    <d_lam> = 0
    <Phi_h> = 0
    <Phi_hx> = 0
    <Phi_hy> = 0
    <LamType> = 0
    <LamFill> = 1
    <NStrands> = 0
    <WireD> = 0
    <BHPoints> = 0
  <EndBlock>
  <BeginBlock>
    <BlockName> = "BMNpi-48/54"
    <Mu_x> = 1.415
    <Mu_y> = 1.415
    <H_c> = 348678.67391157284
    <H_cAngle> = 0
    <J_re> = 0
    <J_im> = 0
    <Sigma> = 0.5
    <d_lam> = 0
    <Phi_h> = 0
    <Phi_hx> = 0
    <Phi_hy> = 0
    <LamType> = 0
    <LamFill> = 1
    <NStrands> = 0
    <WireD> = 0
    <BHPoints> = 0
  <EndBlock>
  <BeginBlock>
    <BlockName> = "DW235"
    <Mu_x> = 1
    <Mu_y> = 1
    <H_c> = 0
    <H_cAngle> = 0
    <J_re> = 0
    <J_im> = 0
    <Sigma> = 0
    <d_lam> = 0
    <Phi_h> = 0
    <Phi_hx> = 0
    <Phi_hy> = 0
    <LamType> = 0
    <LamFill> = 1
    <NStrands> = 0
    <WireD> = 0
    <BHPoints> = 0
  <EndBlock>
  <BeginBlock>
    <BlockName> = "Air"
    <Mu_x> = 1
    <Mu_y> = 1
    <H_c> = 0
    <H_cAngle> = 0
    <J_re> = 0
    <J_im> = 0
    <Sigma> = 0
    <d_lam> = 0
    <Phi_h> = 0
    <Phi_hx> = 0
    <Phi_hy> = 0
    <LamType> = 0
    <LamFill> = 1
    <NStrands> = 0
    <WireD> = 0
    <BHPoints> = 0
  <EndBlock>
  <BeginBlock>
    <BlockName> = "BMNpi-48/54_1"
    <Mu_x> = 1.415
    <Mu_y> = 1.415
    <H_c> = 348678.67391157284
    <H_cAngle> = 0
    <J_re> = 0
    <J_im> = 0
    <Sigma> = 0.5
    <d_lam> = 0
    <Phi_h> = 0
    <Phi_hx> = 0
    <Phi_hy> = 0
    <LamType> = 0
    <LamFill> = 1
    <NStrands> = 0
    <WireD> = 0
    <BHPoints> = 0
  <EndBlock>
  <BeginBlock>
    <BlockName> = "BMNpi-48/54_2"
    <Mu_x> = 1.415
    <Mu_y> = 1.415
    <H_c> = 348678.67391157284
    <H_cAngle> = 0
    <J_re> = 0
    <J_im> = 0
    <Sigma> = 0.5
    <d_lam> = 0
    <Phi_h> = 0
    <Phi_hx> = 0
    <Phi_hy> = 0
    <LamType> = 0
    <LamFill> = 1
    <NStrands> = 0
    <WireD> = 0
    <BHPoints> = 0
  <EndBlock>
  <BeginBlock>
    <BlockName> = "BMNpi-48/54_3"
    <Mu_x> = 1.415
    <Mu_y> = 1.415
    <H_c> = 348678.67391157284
    <H_cAngle> = 0
    <J_re> = 0
    <J_im> = 0
    <Sigma> = 0.5
    <d_lam> = 0
    <Phi_h> = 0
    <Phi_hx> = 0
    <Phi_hy> = 0
    <LamType> = 0
    <LamFill> = 1
    <NStrands> = 0
    <WireD> = 0
    <BHPoints> = 0
  <EndBlock>
  <BeginBlock>
    <BlockName> = "BMNpi-48/54_4"
    <Mu_x> = 1.415
    <Mu_y> = 1.415
    <H_c> = 348678.67391157284
    <H_cAngle> = 0
    <J_re> = 0
    <J_im> = 0
    <Sigma> = 0.5
    <d_lam> = 0
    <Phi_h> = 0
    <Phi_hx> = 0
    <Phi_hy> = 0
    <LamType> = 0
    <LamFill> = 1
    <NStrands> = 0
    <WireD> = 0
    <BHPoints> = 0
  <EndBlock>
[CircuitProps]  = 6
  <BeginCircuit>
    <CircuitName> = "fase1"
    <TotalAmps_re> = 0
    <TotalAmps_im> = 0
    <CircuitType> = 1
  <EndCircuit>
  <BeginCircuit>
    <CircuitName> = "fase2"
    <TotalAmps_re> = 0
    <TotalAmps_im> = 0
    <CircuitType> = 1
  <EndCircuit>
  <BeginCircuit>
    <CircuitName> = "fase3"
    <TotalAmps_re> = 0
    <TotalAmps_im> = 0
    <CircuitType> = 1
  <EndCircuit>
  <BeginCircuit>
    <CircuitName> = "fase1n"
    <TotalAmps_re> = 0
    <TotalAmps_im> = 0
    <CircuitType> = 1
  <EndCircuit>
  <BeginCircuit>
    <CircuitName> = "fase2n"
    <TotalAmps_re> = 0
    <TotalAmps_im> = 0
    <CircuitType> = 1
  <EndCircuit>
  <BeginCircuit>
    <CircuitName> = "fase3n"
    <TotalAmps_re> = 0
    <TotalAmps_im> = 0
    <CircuitType> = 1
  <EndCircuit>
[NumPoints] = 101
731.02047423106012	22.973243906322015	0	2
729.02146111032869	22.91042238816576	0	2
730.87114526904702	27.693238420808584	0	2
732.73860870514693	27.811718728037064	0	2
734.40156658946796	29.653650549895829	0	2
734.12715566704901	29.902988168508308	0	2
728.81324621166232	29.567657996604439	0	2
725.83274211704997	32.339454687434156	0	2
726.13263061285215	22.819637232397916	0	2
730.73247999702107	32.648424001240514	0	2
734.0974660675497	36.413051412957316	0	2
733.68461394582584	36.781926614361609	0	2
721.77474530705547	36.032621191918693	0	2
722.19387001632424	22.695856694010363	0	2
719.51750175925145	38.103197683677315	0	2
720.00385983260321	22.627032851339095	0	2
729.86372491273005	38.754126870710436	0	2
733.73372847669282	43.125580525841727	0	2
732.67958327023507	44.058804580842519	0	2
714.2464593504252	42.899090722982393	0	2
714.88858633061886	22.46627890538123	0	2
725.83345758937253	32.339477198970314	0	2
721.89469699284462	32.215696660582758	0	2
714.4022282572671	37.942443737719451	0	2
731.16980319307322	18.253249391835446	0	2
733.04102105670836	18.254236905887154	0	2
734.81436097985272	16.518320065026572	0	2
734.55415523362637	16.254192118700129	0	2
729.22967600899506	16.253186779727073	0	2
726.43251910865422	13.299819777361675	0	2
731.34198881889051	13.300522323763726	0	2
734.93528682274791	9.7531627057696948	0	2
734.54641123591693	9.3590921961020292	0	2
722.61299472559301	9.3590921961020328	0	2
720.49021790595498	7.1508680190008747	0	2
730.85689733324079	7.1508680190008747	0	2
734.99375017529235	3.0310399634558998	0	2
734.00028270685357	2.0334670877800676	0	2
715.53071331081253	2.033467087780064	0	2
726.43180363633178	13.29979726582552	0	2
722.49304303980387	13.176016727437966	0	2
715.37494440397063	6.99011407304301	0	2
736	0	0	20
562.03999999999996	0	0	2
734.54767212320792	46.213822373574644	0	20
560.93094244582574	35.290783596255288	0	2
0	0	0	2
800	0	0	1
737	0	0	20
798.4213827426172	50.232415623450699	0	1
735.54569885163619	46.276612893103959	0	20
744.04502978496612	9.9144272423039279	0	1
744.06725514882635	7.7921389118066369	0	1
744.51396569938231	11.740812044396273	0	1
790.32614285538727	12.700440356514918	0	1
792.56686632959907	10.535113926142243	0	1
792.59653904587958	8.3003549619010641	0	1
792.61367409788329	6.0654646987470553	0	1
790.41878922664716	3.8536869884034788	0	1
744.59656249910142	3.8536869884034801	0	1
744.08948051268658	5.6698505813093458	0	1
768.36956598650693	3.8536869884034806	0	1
768.28175537427035	12.238676265318023	0	1
736.93430858058923	9.8399612219217349	0	1
736.97875930830969	5.5953845609271546	0	1
743.67421631626394	25.494356270453842	0	1
743.74088265906528	23.372998845760591	0	1
744.10480046789087	27.330161168995886	0	1
789.88683331734785	29.248996868539468	0	1
792.17241253916279	27.131071501874764	0	1
792.24888000829355	24.89742407568761	0	1
792.31281531258139	22.663382810354001	0	1
790.16473179336697	20.406123978843219	0	1
744.352554637362	19.446495666724573	0	1
743.80754900186685	21.251641421067344	0	1
768.12034431225015	19.944359887646328	0	1
767.8569509921773	28.325671231137527	0	1
736.56661410921879	25.27099087256493	0	1
736.6999467948217	21.028276023178435	0	1
742.97720275762265	41.063102631347185	0	1
743.08828083730418	38.943606609935962	0	1
743.36924627802057	42.907522381636504	0	1
789.10105330821136	45.78472380384909	0	1
791.4304857470438	43.715128492956268	0	1
791.55371442786554	41.483572356406995	0	1
791.66442194030003	39.251360013228513	0	1
789.5640819935337	36.949610168877129	0	1
743.78204914407661	35.030774469333551	0	1
743.1993589169856	36.824110588524746	0	1
767.53419966836327	36.026284531475198	0	1
767.0953391734696	44.400241621382861	0	1
735.87583717714574	40.690935831397361	0	1
736.09799333650869	36.45194378857493	0	1
799.82454677987641	16.753935906685566	0	1
736.83836372096118	15.434563454034077	0	1
799.29826407908672	33.500522983359694	0	1
736.35352578285858	30.862356798420116	0	1
736.66666666666663	0	0	20
735.21302327549336	46.255682719927513	0	20
736.33333333333337	0	0	20
734.88034769935064	46.234752546751082	0	20
[NumSegments] = 89
0	1	0.71111111111111114	0	0	2
2	0	0.71111111111111114	0	0	2
3	2	0.71111111111111114	0	0	2
6	5	0.71111111111111114	0	0	2
1	6	0.71111111111111114	0	0	2
7	8	0.71111111111111114	0	0	2
9	21	0.71111111111111114	0	0	2
12	11	0.71111111111111114	0	0	2
13	22	0.71111111111111114	0	0	2
14	15	0.71111111111111114	0	0	2
16	14	0.71111111111111114	0	0	2
19	18	0.71111111111111114	0	0	2
20	23	0.71111111111111114	0	0	2
8	13	0.71111111111111114	0	0	2
21	7	0.71111111111111114	0	0	2
21	8	0.71111111111111114	0	0	2
22	12	0.71111111111111114	0	0	2
22	7	0.71111111111111114	0	0	2
15	20	0.71111111111111114	0	0	2
23	19	0.71111111111111114	0	0	2
23	14	0.71111111111111114	0	0	2
24	0	0.71111111111111114	0	0	2
25	24	0.71111111111111114	0	0	2
28	27	0.71111111111111114	0	0	2
1	28	0.71111111111111114	0	0	2
29	8	0.71111111111111114	0	0	2
30	29	0.71111111111111114	0	0	2
33	32	0.71111111111111114	0	0	2
13	40	0.71111111111111114	0	0	2
34	15	0.71111111111111114	0	0	2
35	34	0.71111111111111114	0	0	2
38	37	0.71111111111111114	0	0	2
20	41	0.71111111111111114	0	0	2
39	8	0.71111111111111114	0	0	2
40	33	0.71111111111111114	0	0	2
40	39	0.71111111111111114	0	0	2
41	38	0.71111111111111114	0	0	2
41	34	0.71111111111111114	0	0	2
42	43	-1	4	0	2
45	44	-1	4	0	2
43	46	-1	2	0	2
46	45	-1	2	0	2
47	48	-1	10	0	1
50	49	-1	10	0	1
51	52	0.71111111111111114	0	0	1
53	51	0.71111111111111114	0	0	1
54	62	0.71111111111111114	0	0	1
56	55	0.71111111111111114	0	0	1
57	56	0.71111111111111114	0	0	1
59	61	0.71111111111111114	0	0	1
60	59	0.71111111111111114	0	0	1
52	60	0.71111111111111114	0	0	1
61	58	0.71111111111111114	0	0	1
62	53	0.71111111111111114	0	0	1
61	62	0.71111111111111114	0	0	1
51	63	0.71111111111111114	0	0	1
64	60	0.71111111111111114	0	0	1
65	66	0.71111111111111114	0	0	1
67	65	0.71111111111111114	0	0	1
68	76	0.71111111111111114	0	0	1
70	69	0.71111111111111114	0	0	1
71	70	0.71111111111111114	0	0	1
73	75	0.71111111111111114	0	0	1
74	73	0.71111111111111114	0	0	1
66	74	0.71111111111111114	0	0	1
75	72	0.71111111111111114	0	0	1