[Format]      =  4.0
[Frequency]   =  0
[Precision]   =  1e-008
[MinAngle]    =  15
[DoSmartMesh] =  1
[Depth]       =  300
[LengthUnits] =  millimeters
[ProblemType] =  planar
[Coordinates] =  cartesian
[ACSolver]    =  0
[PrevType]    =  0
[PrevSoln]    =  ""
[Comment]     =  "Add comments here."
[PointProps]   = 0
[BdryProps]   = 11
  <BeginBdry>
    <BdryName> = "A=0"
    <BdryType> = 0
    <A_0> = 0
    <A_1> = 0
    <A_2> = 0
    <Phi> = 0
    <c0> = 0
    <c0i> = 0
    <c1> = 0
    <c1i> = 0
    <Mu_ssd> = 0
    <Sigma_ssd> = 0
    <innerangle> = 0
    <outerangle> = 0
  <EndBdry>
  <BeginBdry>
    <BdryName> = "APr1"
    <BdryType> = 5
    <A_0> = 0
    <A_1> = 0
    <A_2> = 0
    <Phi> = 0
    <c0> = 0
    <c0i> = 0
    <c1> = 0
    <c1i> = 0
    <Mu_ssd> = 0
    <Sigma_ssd> = 0
    <innerangle> = 0
    <outerangle> = 0
  <EndBdry>
  <BeginBdry>
    <BdryName> = "APr2"
    <BdryType> = 5
    <A_0> = 0
    <A_1> = 0
    <A_2> = 0
    <Phi> = 0
    <c0> = 0
    <c0i> = 0
    <c1> = 0
    <c1i> = 0
    <Mu_ssd> = 0
    <Sigma_ssd> = 0
    <innerangle> = 0
    <outerangle> = 0
  <EndBdry>
  <BeginBdry>
    <BdryName> = "APr3"
    <BdryType> = 5
    <A_0> = 0
    <A_1> = 0
    <A_2> = 0
    <Phi> = 0
    <c0> = 0
    <c0i> = 0
    <c1> = 0
    <c1i> = 0
    <Mu_ssd> = 0
    <Sigma_ssd> = 0
    <innerangle> = 0
    <outerangle> = 0
  <EndBdry>
  <BeginBdry>
    <BdryName> = "APg1"
    <BdryType> = 5
    <A_0> = 0
    <A_1> = 0
    <A_2> = 0
    <Phi> = 0
    <c0> = 0
    <c0i> = 0
    <c1> = 0
    <c1i> = 0
    <Mu_ssd> = 0
    <Sigma_ssd> = 0
    <innerangle> = 0
    <outerangle> = 0
  <EndBdry>
  <BeginBdry>
    <BdryName> = "APg2"
    <BdryType> = 5
    <A_0> = 0
    <A_1> = 0
    <A_2> = 0
    <Phi> = 0
    <c0> = 0
    <c0i> = 0
    <c1> = 0
    <c1i> = 0
    <Mu_ssd> = 0
    <Sigma_ssd> = 0
    <innerangle> = 0
    <outerangle> = 0
  <EndBdry>
  <BeginBdry>
    <BdryName> = "APg3"
    <BdryType> = 5
    <A_0> = 0
    <A_1> = 0
    <A_2> = 0
    <Phi> = 0
    <c0> = 0
    <c0i> = 0
    <c1> = 0
    <c1i> = 0
    <Mu_ssd> = 0
    <Sigma_ssd> = 0
    <innerangle> = 0
    <outerangle> = 0
  <EndBdry>
  <BeginBdry>
    <BdryName> = "APs1"
    <BdryType> = 5
    <A_0> = 0
    <A_1> = 0
    <A_2> = 0
    <Phi> = 0
    <c0> = 0
    <c0i> = 0
    <c1> = 0
    <c1i> = 0
    <Mu_ssd> = 0
    <Sigma_ssd> = 0
    <innerangle> = 0
    <outerangle> = 0
  <EndBdry>
  <BeginBdry>
    <BdryName> = "APs2"
    <BdryType> = 5
    <A_0> = 0
    <A_1> = 0
    <A_2> = 0
    <Phi> = 0
    <c0> = 0
    <c0i> = 0
    <c1> = 0
    <c1i> = 0
    <Mu_ssd> = 0
    <Sigma_ssd> = 0
    <innerangle> = 0
    <outerangle> = 0
  <EndBdry>
  <BeginBdry>
    <BdryName> = "APs3"
    <BdryType> = 5
    <A_0> = 0
    <A_1> = 0
    <A_2> = 0
    <Phi> = 0
    <c0> = 0
    <c0i> = 0
    <c1> = 0
    <c1i> = 0
    <Mu_ssd> = 0
    <Sigma_ssd> = 0
    <innerangle> = 0
    <outerangle> = 0
  <EndBdry>
  <BeginBdry>
    <BdryName> = "AGap"
    <BdryType> = 7
    <A_0> = 0
    <A_1> = 0
    <A_2> = 0
    <Phi> = 0
    <c0> = 0
    <c0i> = 0
    <c1> = 0
    <c1i> = 0
    <Mu_ssd> = 0
    <Sigma_ssd> = 0
    <innerangle> = 0
    <outerangle> = 0
  <EndBdry>
[BlockProps]  = 17
  <BeginBlock>
    <BlockName> = "M270-35A"
    <Mu_x> = 1
    <Mu_y> = 1
    <H_c> = 0
    <H_cAngle> = 0
    <J_re> = 0
    <J_im> = 0
    <Sigma> = 0
    <d_lam> = 0
    <Phi_h> = 0
    <Phi_hx> = 0
    <Phi_hy> = 0
    <LamType> = 0
    <LamFill> = 1
    <NStrands> = 0
    <WireD> = 0
    <BHPoints> = 200
      0	0
      0.0045422769999999999	3.2767874890000002
      0.0090353559999999996	6.114592773
      0.013222249	8.4602422570000009
      0.017196487	10.462328400000001
      0.020991169	12.199266809999999
      0.024640190999999999	13.72982376
      0.028168996000000002	15.09561901
      0.031597466999999997	16.327217480000002
      0.034941272000000002	17.447599879999999
      0.038212956999999999	18.47443998
      0.041422729999999998	19.421601849999998
      0.044579012000000001	20.300151339999999
      0.047688851999999997	21.119056130000001
      0.050758219	21.885681389999998
      0.053792226999999998	22.60614816
      0.056795300999999999	23.285597330000002
      0.059771310000000001	23.928387470000001
      0.062723663999999998	24.538245379999999
      0.065655396000000005	25.11838217
      0.068569221	25.67158405
      0.071467592999999996	26.200284
      0.074352739000000001	26.70661905
      0.077226698999999996	27.19247648
      0.080091349000000006	27.65953137
      0.082948429000000004	28.109277410000001
      0.085799557999999998	28.54305239
      0.088646256000000007	28.96205934
      0.091489953999999998	29.36738437
      0.094332005999999996	29.760011540000001
      0.097173704999999999	30.140835630000002
      0.100016285	30.510672870000001
      0.102860934	30.870270300000001
      0.105708802	31.220313650000001
      0.108561001	31.561434299999998
      0.11141862	31.894215259999999
      0.114282722	32.21919639
      0.117154355	32.536878999999999
      0.120034552	32.847729870000002
      0.12292433699999999	33.152184810000001
      0.12582473199999999	33.45065185
      0.12873675200000001	33.743513989999997
      0.13166142	34.031131799999997
      0.13459976100000001	34.313845620000002
      0.137552811	34.591977620000002
      0.14052161499999999	34.865833639999998
      0.14350723800000001	35.135704879999999
      0.14651076099999999	35.401869419999997
      0.14953328699999999	35.664593680000003
      0.15257594699999999	35.924133650000002
      0.155639899	36.180736189999998
      0.158726334	36.434640119999997
      0.161836481	36.686077320000003
      0.16497160599999999	36.93527375
      0.16813302299999999	37.182450420000002
      0.17132209400000001	37.427824389999998
      0.17454023399999999	37.671609650000001
      0.17778891699999999	37.914018050000003
      0.18106968000000001	38.155260249999998
      0.18438413100000001	38.395546590000002
      0.18773395400000001	38.635088090000004
      0.191120915	38.87409736
      0.19454686800000001	39.112789630000002
      0.19801376800000001	39.351383830000003
      0.20152367299999999	39.590103640000002
      0.20507876	39.829178749999997
      0.208681327	40.068846100000002
      0.21233381500000001	40.309351300000003
      0.216038808	40.550950149999998
      0.21979905799999999	40.793910310000001
      0.22361749	41.038513199999997
      0.227497227	41.285056060000002
      0.2314416	41.53385428
      0.23545417299999999	41.785244059999997
      0.23953876299999999	42.039585369999998
      0.24369946200000001	42.297265359999997
      0.247940667	42.558702250000003
      0.25226710400000002	42.824349750000003
      0.25668386300000001	43.0947022
      0.26119642799999998	43.370300520000001
      0.26581071499999998	43.651739030000002
      0.27054201700000002	43.94020278
      0.275438138	44.23873004
      0.28051031599999998	44.548036490000001
      0.28576849199999999	44.868763260000001
      0.29122336399999998	45.201605100000002
      0.296886504	45.547319020000003
      0.30277045699999999	45.906731970000003
      0.30888884599999999	46.280749559999997
      0.31525650100000002	46.670366299999998
      0.321889598	47.076677459999999
      0.328805825	47.50089294
      0.33602457000000002	47.944353649999996
      0.34356714500000002	48.408550759999997
      0.351457032	48.895148689999999
      0.35972019	49.406012390000001
      0.36838539799999998	49.943240269999997
      0.37748466600000002	50.509203810000002
      0.38705371900000002	51.106595769999998
      0.39713256899999999	51.738489119999997
      0.40776619800000002	52.408409570000003
      0.41900536300000002	53.120425429999997
      0.43090757000000002	53.879259759999997
      0.44353822799999998	54.690431349999997
      0.45697202599999998	55.560433060000001
      0.47129457299999999	56.49695913
      0.486604327	57.509196449999997
      0.503014823	58.60819978
      0.520657166	59.807376320000003
      0.53968265500000001	61.123111049999999
      0.56026517099999995	62.575567960000001
      0.58260257699999995	64.189698669999999
      0.60691558199999995	65.996464399999994
      0.63344113800000001	68.034201780000004
      0.662415215	70.349880479999996
      0.69403682899999997	72.999622560000006
      0.72840307800000004	76.047204840000006
      0.76540934699999996	79.558509650000005
      0.80463064699999998	83.589963030000007
      0.84524547999999999	88.171938179999998
      0.88609953900000005	93.294734669999997
      0.92594964300000004	98.90894376
      0.963771241	104.9435902
      0.99893980100000002	111.3300564
      1.0312218310000001	118.0174305
      1.0606584889999999	124.9760964
      1.0874410889999999	132.19454709999999
      1.1118223309999999	139.6744898
      1.1340651580000001	147.42664859999999
      1.1544176930000001	155.46782519999999
      1.173103241	163.8190534
      1.1903180360000001	172.50453999999999
      1.2062325739999999	181.55112829999999
      1.220994358	190.98810510000001
      1.234730984	200.84723579999999
      1.2475531	211.16296399999999
      1.2595570490000001	221.97273730000001
      1.270827143	233.31744900000001
      1.281437594	245.2419931
      1.291454146	257.79594609999998
      1.3009354369999999	271.03439809999998
      1.309934159	285.01896390000002
      1.318498043	299.81902289999999
      1.326670706	315.51324579999999
      1.3344924010000001	332.19149570000002
      1.3420006879999999	349.95721329999998
      1.3492310569999999	368.93044570000001
      1.356217531	389.25173360000002
      1.362993272	411.08716509999999
      1.3695912379999999	434.63503709999998
      1.3760449050000001	460.1347695
      1.382389146	487.87903890000001
      1.3886613240000001	518.23060969999995
      1.394902732	551.64618570000005
      1.401160583	588.71104339999999
      1.4074908660000001	630.19074279999995
      1.4139626249999999	677.11087850000001
      1.420664664	730.8848299
      1.4277165590000001	793.52783980000004
      1.435287779	868.03580320000003
      1.4436331710000001	959.10175079999999
      1.453164339	1074.5891859999999
      1.464608755	1228.9034079999999
      1.479413587	1451.8548430000001
      1.5007295060000001	1812.597843
      1.531321148	2396.2922779999999
      1.5749716949999999	3340.7297119999998
      1.6351726849999999	4868.8615820000005
      1.6746062129999999	6056.7860730000002
      1.7053540309999999	7126.7301200000002
      1.7307497590000001	8135.9466300000004
      1.752580204	9119.3875740000003
      1.771845345	10098.25848
      1.789165838	11087.22133
      1.804957089	12097.58993
      1.819514077	13138.977849999999
      1.8330565510000001	14220.25051
      1.845754994	15350.15127
      1.8577465099999999	16537.778849999999
      1.869145125	17793.012470000001
      1.8800488470000001	19126.948680000001
      1.8905448170000001	20552.403480000001
      1.9007133519999999	22084.53774
      1.9106314310000001	23741.68173
      1.920376064	25546.46932
      1.930027954	27527.455720000002
      1.9396760099999999	29721.505959999999
      1.9494234969999999	32177.45292
      1.959397184	34961.935420000002
      1.969762051	38169.180130000001
      1.980746793	41938.394229999998
      1.9926918389999999	46487.096960000003
      2.0061495709999999	52181.595710000001
      2.022124024	59707.652569999998
      2.042772002	70576.241299999994
      2.0725625070000002	88161.987269999998
      2.1158769670000002	116616.322
      2.1803765140000002	162656.4026
      2.2792825830000001	237150.818
      2.3747656959999999	310949.48619999998
  <EndBlock>
  <BeginBlock>
    <BlockName> = "ShaftAir"
    <Mu_x> = 1
    <Mu_y> = 1
    <H_c> = 0
    <H_cAngle> = 0
    <J_re> = 0
    <J_im> = 0
    <Sigma> = 0
    <d_lam> = 0
    <Phi_h> = 0
    <Phi_hx> = 0
    <Phi_hy> = 0
    <LamType> = 0
    <LamFill> = 1
    <NStrands> = 0
    <WireD> = 0
    <BHPoints> = 3
      -100	-7.9577471545947675e-011
      0	0
      100	7.9577471545947675e-011
  <EndBlock>
  <BeginBlock>
    <BlockName> = "Copper"
    <Mu_x> = 1
    <Mu_y> = 1
    <H_c> = 0
    <H_cAngle> = 0
    <J_re> = 0
    <J_im> = 0
    <Sigma> = 58
    <d_lam> = 0
    <Phi_h> = 0
    <Phi_hx> = 0
    <Phi_hy> = 0
    <LamType> = 0
    <LamFill> = 1
    <NStrands> = 0
    <WireD> = 0
    <BHPoints> = 0
  <EndBlock>
  <BeginBlock>
    <BlockName> = "Aluminium"
    <Mu_x> = 1
    <Mu_y> = 1
    <H_c> = 0
    <H_cAngle> = 0
    <J_re> = 0
    <J_im> = 0
    <Sigma> = 29
    <d_lam> = 0
    <Phi_h> = 0
    <Phi_hx> = 0
    <Phi_hy> = 0
    <LamType> = 0
    <LamFill> = 1
    <NStrands> = 0
    <WireD> = 0
    <BHPoints> = 0
  <EndBlock>
  <BeginBlock>
    <BlockName> = "BMN-52UH"
    <Mu_x> = 1.05
    <Mu_y> = 1.05
    <H_c> = 1098926.9880154678
    <H_cAngle> = 0
    <J_re> = 0
    <J_im> = 0
    <Sigma> = 0.66600000000000004
    <d_lam> = 0
    <Phi_h> = 0
    <Phi_hx> = 0
    <Phi_hy> = 0
    <LamType> = 0
    <LamFill> = 1
    <NStrands> = 0
    <WireD> = 0
    <BHPoints> = 0
  <EndBlock>
  <BeginBlock>
    <BlockName> = "DW235"
    <Mu_x> = 1
    <Mu_y> = 1
    <H_c> = 0
    <H_cAngle> = 0
    <J_re> = 0
    <J_im> = 0
    <Sigma> = 0
    <d_lam> = 0
    <Phi_h> = 0
    <Phi_hx> = 0
    <Phi_hy> = 0
    <LamType> = 0
    <LamFill> = 1
    <NStrands> = 0
    <WireD> = 0
    <BHPoints> = 0
  <EndBlock>
  <BeginBlock>
    <BlockName> = "Air"
    <Mu_x> = 1
    <Mu_y> = 1
    <H_c> = 0
    <H_cAngle> = 0
    <J_re> = 0
    <J_im> = 0
    <Sigma> = 0
    <d_lam> = 0
    <Phi_h> = 0
    <Phi_hx> = 0
    <Phi_hy> = 0
    <LamType> = 0
    <LamFill> = 1
    <NStrands> = 0
    <WireD> = 0
    <BHPoints> = 0
  <EndBlock>
  <BeginBlock>
    <BlockName> = "BMN-52UH_1"
    <Mu_x> = 1.05
    <Mu_y> = 1.05
    <H_c> = 1098926.9880154678
    <H_cAngle> = 0
    <J_re> = 0
    <J_im> = 0
    <Sigma> = 0.66600000000000004
    <d_lam> = 0
    <Phi_h> = 0
    <Phi_hx> = 0
    <Phi_hy> = 0
    <LamType> = 0
    <LamFill> = 1
    <NStrands> = 0
    <WireD> = 0
    <BHPoints> = 0
  <EndBlock>
  <BeginBlock>
    <BlockName> = "BMN-52UH_2"
    <Mu_x> = 1.05
    <Mu_y> = 1.05
    <H_c> = 1098926.9880154678
    <H_cAngle> = 0
    <J_re> = 0
    <J_im> = 0
    <Sigma> = 0.66600000000000004
    <d_lam> = 0
    <Phi_h> = 0
    <Phi_hx> = 0
    <Phi_hy> = 0
    <LamType> = 0
    <LamFill> = 1
    <NStrands> = 0
    <WireD> = 0
    <BHPoints> = 0
  <EndBlock>
  <BeginBlock>
    <BlockName> = "BMN-52UH_3"
    <Mu_x> = 1.05
    <Mu_y> = 1.05
    <H_c> = 1098926.9880154678
    <H_cAngle> = 0
    <J_re> = 0
    <J_im> = 0
    <Sigma> = 0.66600000000000004
    <d_lam> = 0
    <Phi_h> = 0
    <Phi_hx> = 0
    <Phi_hy> = 0
    <LamType> = 0
    <LamFill> = 1
    <NStrands> = 0
    <WireD> = 0
    <BHPoints> = 0
  <EndBlock>
  <BeginBlock>
    <BlockName> = "BMN-52UH_4"
    <Mu_x> = 1.05
    <Mu_y> = 1.05
    <H_c> = 1098926.9880154678
    <H_cAngle> = 0
    <J_re> = 0
    <J_im> = 0
    <Sigma> = 0.66600000000000004
    <d_lam> = 0
    <Phi_h> = 0
    <Phi_hx> = 0
    <Phi_hy> = 0
    <LamType> = 0
    <LamFill> = 1
    <NStrands> = 0
    <WireD> = 0
    <BHPoints> = 0
  <EndBlock>
  <BeginBlock>
    <BlockName> = "BMN-52UH_5"
    <Mu_x> = 1.05
    <Mu_y> = 1.05
    <H_c> = 1098926.9880154678
    <H_cAngle> = 0
    <J_re> = 0
    <J_im> = 0
    <Sigma> = 0.66600000000000004
    <d_lam> = 0
    <Phi_h> = 0
    <Phi_hx> = 0
    <Phi_hy> = 0
    <LamType> = 0
    <LamFill> = 1
    <NStrands> = 0
    <WireD> = 0
    <BHPoints> = 0
  <EndBlock>
  <BeginBlock>
    <BlockName> = "BMN-52UH_6"
    <Mu_x> = 1.05
    <Mu_y> = 1.05
    <H_c> = 1098926.9880154678
    <H_cAngle> = 0
    <J_re> = 0
    <J_im> = 0
    <Sigma> = 0.66600000000000004
    <d_lam> = 0
    <Phi_h> = 0
    <Phi_hx> = 0
    <Phi_hy> = 0
    <LamType> = 0
    <LamFill> = 1
    <NStrands> = 0
    <WireD> = 0
    <BHPoints> = 0
  <EndBlock>
  <BeginBlock>
    <BlockName> = "BMN-52UH_7"
    <Mu_x> = 1.05
    <Mu_y> = 1.05
    <H_c> = 1098926.9880154678
    <H_cAngle> = 0
    <J_re> = 0
    <J_im> = 0
    <Sigma> = 0.66600000000000004
    <d_lam> = 0
    <Phi_h> = 0
    <Phi_hx> = 0
    <Phi_hy> = 0
    <LamType> = 0
    <LamFill> = 1
    <NStrands> = 0
    <WireD> = 0
    <BHPoints> = 0
  <EndBlock>
  <BeginBlock>
    <BlockName> = "BMN-52UH_8"
    <Mu_x> = 1.05
    <Mu_y> = 1.05
    <H_c> = 1098926.9880154678
    <H_cAngle> = 0
    <J_re> = 0
    <J_im> = 0
    <Sigma> = 0.66600000000000004
    <d_lam> = 0
    <Phi_h> = 0
    <Phi_hx> = 0
    <Phi_hy> = 0
    <LamType> = 0
    <LamFill> = 1
    <NStrands> = 0
    <WireD> = 0
    <BHPoints> = 0
  <EndBlock>
  <BeginBlock>
    <BlockName> = "BMN-52UH_9"
    <Mu_x> = 1.05
    <Mu_y> = 1.05
    <H_c> = 1098926.9880154678
    <H_cAngle> = 0
    <J_re> = 0
    <J_im> = 0
    <Sigma> = 0.66600000000000004
    <d_lam> = 0
    <Phi_h> = 0
    <Phi_hx> = 0
    <Phi_hy> = 0
    <LamType> = 0
    <LamFill> = 1
    <NStrands> = 0
    <WireD> = 0
    <BHPoints> = 0
  <EndBlock>
  <BeginBlock>
    <BlockName> = "BMN-52UH_10"
    <Mu_x> = 1.05
    <Mu_y> = 1.05
    <H_c> = 1098926.9880154678
    <H_cAngle> = 0
    <J_re> = 0
    <J_im> = 0
    <Sigma> = 0.66600000000000004
    <d_lam> = 0
    <Phi_h> = 0
    <Phi_hx> = 0
    <Phi_hy> = 0
    <LamType> = 0
    <LamFill> = 1
    <NStrands> = 0
    <WireD> = 0
    <BHPoints> = 0
  <EndBlock>
[CircuitProps]  = 6
  <BeginCircuit>
    <CircuitName> = "fase1"
    <TotalAmps_re> = 0
    <TotalAmps_im> = 0
    <CircuitType> = 1
  <EndCircuit>
  <BeginCircuit>
    <CircuitName> = "fase2"
    <TotalAmps_re> = 0
    <TotalAmps_im> = 0
    <CircuitType> = 1
  <EndCircuit>
  <BeginCircuit>
    <CircuitName> = "fase3"
    <TotalAmps_re> = 0
    <TotalAmps_im> = 0
    <CircuitType> = 1
  <EndCircuit>
  <BeginCircuit>
    <CircuitName> = "fase1n"
    <TotalAmps_re> = 0
    <TotalAmps_im> = 0
    <CircuitType> = 1
  <EndCircuit>
  <BeginCircuit>
    <CircuitName> = "fase2n"
    <TotalAmps_re> = 0
    <TotalAmps_im> = 0
    <CircuitType> = 1
  <EndCircuit>
  <BeginCircuit>
    <CircuitName> = "fase3n"
    <TotalAmps_re> = 0
    <TotalAmps_im> = 0
    <CircuitType> = 1
  <EndCircuit>
[NumPoints] = 231
438.75930978435872	259.82726082495282	0	2
442.64489315512338	258.78612189863264	0	2
456.58370989321799	266.83370149455641	0	2
457.62484881953816	270.71928486532101	0	2
431.37713907596094	316.1816517235174	0	2
437.73125349616873	327.18730073642331	0	2
436.30370394840452	346.49876047011014	0	2
423.16597103995991	345.52758765715021	0	2
406.22308702905525	316.18165172351706	0	2
368.85974885183703	231.81141336076524	0	2
372.74533222260169	230.77027443444504	0	2
407.72648096147333	250.96665007539494	0	2
408.7676198877935	254.85223344615957	0	2
369.62813287471243	322.64381353499823	0	2
386.53041380196936	351.91942286480963	0	2
377.75937440007266	409.53652845538147	0	2
365.50843675973903	407.67157089369744	0	2
316.41763816010382	322.64381353499823	0	2
272.90057314819489	202.7204329506003	0	2
276.7861565189595	201.67929402428013	0	2
331.35844194820976	233.18661770715084	0	2
332.39958087452993	237.07220107791545	0	2
282.62404264175882	323.28596227116225	0	2
325.81008256469056	398.08637759537783	0	2
310.93437810538342	462.32253416704475	0	2
279.34070211291709	455.0061221659189	0	2
203.29203233997879	323.28596227116225	0	2
412.5116000407815	305.28962768314921	0	2
329.72026183875596	299.6029934496039	0	2
371.05035509693465	325.10717468354062	0	2
331.14248406097823	348.14799476893489	0	2
386.17035509693466	351.29578289398205	0	2
346.26248406097824	374.33660297937638	0	2
223.12503491542378	288.93419414384709	0	2
284.04626486398104	325.74932341970464	0	2
224.54725713764606	360.10109154701979	0	2
325.45126486398107	397.464887107094	0	2
265.95225713764603	431.81665523440915	0	2
445.43780228863403	253.94866137846904	0	2
444.3966633623138	250.06307800770441	0	2
459.37661902672863	261.99624097439278	0	2
463.26220239749324	260.9551020480726	0	2
489.50991214107046	215.49273518987621	0	2
502.21814098148593	215.49273518987621	0	2
518.228580921137	204.60071114950799	0	2
510.81865413942649	193.7086871091401	0	2
476.93288611761727	193.70868710914016	0	2
386.22558620983688	207.42178962962075	0	2
385.18444728351665	203.53620625885611	0	2
421.20673494870852	227.61816527057064	0	2
425.09231831947312	226.57702634425044	0	2
464.23180533255419	158.78544625541178	0	2
498.03636718706804	158.78544625541178	0	2
543.5487246200853	122.38095052048899	0	2
535.80815517452027	112.7038060846231	0	2
437.62655797524985	112.70380608462315	0	2
313.05247030181749	138.86419594913463	0	2
312.01133137549732	134.97861257837002	0	2
367.62475573106775	170.37151963200535	0	2
371.51033910183236	169.33038070568517	0	2
421.28587733460347	83.116619512438405	0	2
507.65795718046684	83.116619512438433	0	2
555.85024838335153	38.115803265655501	0	2
533.71721172959008	14.413083257808097	0	2
381.61987218371343	14.413083257808097	0	2
470.64437310589102	204.60071114950802	0	2
424.32393429659771	135.74462617001745	0	2
467.07624977699862	158.78544625541178	0	2
467.07624977699862	112.70380608462317	0	2
497.31624977699863	158.78544625541178	0	2
497.31624977699863	112.70380608462315	0	2
361.78686960826843	48.764851385123251	0	2
424.1303217790479	83.116619512438405	0	2
424.1303217790479	14.413083257808154	0	2
506.94032177904791	83.116619512438405	0	2
506.94032177904796	14.413083257808125	0	2
560	0	0	20
247.11000000000001	0	0	2
280.00000000000006	484.97422611928562	0	20
123.55500000000004	214.00353752917263	0	2
0	0	0	2
800	0	0	1
564.97777777777776	0	0	20
400.00000000000011	692.8203230275509	0	1
282.48888888888894	489.2851081292348	0	20
570.52327370258058	42.283124443981833	0	1
571.04882213175517	33.25980639072101	0	1
572.21617301684648	50.481843516216109	0	1
685.20334344119976	63.688149707559532	0	1
704.99402851250215	47.375775165035975	0	1
705.47109851169625	41.089012430069587	0	1
705.7271028954849	34.789374089230165	0	1
687.96398645362035	16.289739685280406	0	1
574.20763628484349	16.289739685280402	0	1
571.57437056092976	24.236488337460191	0	1
639.25805303208483	16.289739685280413	0	1
636.82674211730534	58.033735961464032	0	1
563.4241934659849	41.869650105062888	0	1
564.47529032433408	23.823013998541253	0	1
561.75682829088657	108.23093050333763	0	1
563.32636643747571	99.329637347390445	0	1
562.4864676364208	116.57074638494488	0	1
673.17650066403132	142.80476613159928	0	1
694.72711929978345	128.90024833257388	0	1
695.93081212862717	122.71137888463079	0	1
696.91642887527917	116.48405673955011	0	1
681.42109674038863	96.047338293662861	0	1
568.43392631603535	82.841032102319431	0	1
564.89590458406474	90.428344191443259	0	1
633.04449541649433	90.392924547567361	0	1
625.78344198140371	131.57240488526855	0	1
554.75375093613309	106.99609901770611	0	1
557.89282722931125	89.193512705811756	0	1
545.39358546134508	172.71509889605304	0	1
547.98588801443339	164.05620535732868	0	1
545.15009771768359	181.08322988405425	0	1
652.04610053882107	219.99019307298425	0	1
675.06521759171346	208.68156676771264	0	1
676.97925536961213	202.67428444917044	0	1
678.68115570343878	196.60349234898996	0	1
665.66315566065407	174.50606141928466	0	1
554.97312263304343	148.27204167263025	0	1
550.5781905675218	155.39731181860435	0	1
618.27009697802646	163.27370017295394	0	1
606.27749431411439	203.3317827433402	0	1
538.58121559599044	170.67560924121861	0	1
543.76582070216716	153.35782216376992	0	1
521.65483000234633	234.86359186616832	0	1
525.23484051695675	226.56419462558574	0	1
520.44150792352309	243.14687334434473	0	1
622.09789547840171	294.20063004268843	0	1
646.27421687921833	285.64082500218319	0	1
648.87271552872699	279.89636800100419	0	1
651.26788416729596	274.06420299453276	0	1
640.90326233502628	250.604889426547	0	1
534.00725951388893	211.69792623761697	0	1
528.81485103156706	218.26479738500313	0	1
595.13465611031961	233.94647909690295	0	1
578.57268359549857	272.34144705220501	0	1
515.12529324230877	232.04702464100097	0	1
522.2853142715295	215.44823015983582	0	1
490.8615878580207	293.83595766100098	0	1
495.38089283339332	286.0082918287568	0	1
488.69483954371719	301.92237245719605	0	1
583.73688358055222	364.43250818750533	0	1
608.74346605643666	358.73728109073164	0	1
611.99128534100339	353.33333333333337	0	1
615.04733173735099	347.81866544729849	0	1
607.47625184553624	323.31471621296487	0	1
505.81986429065745	272.26095951462111	0	1
499.90019780876594	278.18062599651262	0	1
563.9510399626331	301.45553322248145	0	1
543.04366986336925	337.6681604870526	0	1
484.70318498666467	290.28040210544543	0	1
493.74179493740991	274.62507044095707	0	1
453.43028480305964	348.83469619931901	0	1
458.82776839219741	341.58461752755971	0	1
450.33941180720501	356.61488942552859	0	1
537.48183172349309	429.73606183718158	0	1
562.98050414484851	426.982430860553	0	1
566.83372288023099	421.99207146996889	0	1
570.50931924944507	416.8694771272053	0	1
565.83416716555655	391.65226610378812	0	1
470.79212312872147	329.14213037347884	0	1
464.22525198133519	334.33453885580047	0	1
525.14095344837347	364.88791840333545	0	1
500.17092207900288	398.42849131560098	0	1
447.7262976545793	344.58823510276585	0	1
458.52126483285485	330.08807775924737	0	1
409.86711499848406	399.11604389184151	0	1
416.06978549514008	392.5415972572095	0	1
405.89391607600442	406.48480178147707	0	1
483.95826013379502	489.22817245579915	0	1
509.60419669868418	489.45337573446506	0	1
514.01070671162108	484.94409076057173	0	1
518.25614691823444	480.28284426183717	0	1
516.54014605405837	454.69339096870902	0	1
429.39772613777023	381.57221855705598	0	1
422.27245599179611	385.96715062257761	0	1
479.22923640956816	423.38582044712848	0	1
450.53422060867496	453.80076029676241	0	1
404.6946802139646	394.23610335588603	0	1
417.1000212072766	381.08721008662212	0	1
360.76119558398523	444.00003176786885	0	1
367.6851725102735	438.19012528274033	0	1
355.95940143434848	450.85770451145856	0	1
423.88998329838421	542.10431130499865	0	1
449.33636670995799	545.30530335094761	0	1
454.23657751182117	541.33807313741124	0	1
458.99444926002343	537.20120984530797	0	1
460.26080558347627	511.58556773996349	0	1
382.19646152568561	428.84219706564141	0	1
374.60914943656172	432.3802187976118	0	1
426.8367660583562	476.15815558092675	0	1
394.80481668881038	503.03615248280187	0	1
356.19026147065875	438.55260461680052	0	1
370.03821532323525	426.93279164654354	0	1
306.77659987923073	482.87968088913544	0	1
314.32824832519401	477.91288357192082	0	1
301.21114653091013	489.13353022704945	0	1
358.08932161529856	587.64941931500834	0	1
382.99203319077594	593.78291220206938	0	1
388.31967783670297	590.41138673180842	0	1
393.52563907315215	586.85485062563976	0	1
397.75722728737293	561.55942732433266	0	1
329.82664542333714	470.31282053079258	0	1
321.87989677115729	472.94608625470624	0	1
368.6720606777991	522.49126850213599	0	1
333.73635490453074	545.46884365692506	0	1
302.86898047961608	476.93843423019905	0	1
317.9722773715427	467.00483959576974	0	1
794.59068619355446	92.874331300184181	0	1
561.15760016069237	65.589916638218966	0	1
778.43589646385908	184.49269659395213	0	1
549.74872865825421	130.29284217235107	0	1
751.75409662872676	273.61611466053495	0	1
530.90544868579855	193.23378053137336	0	1
714.90611225872976	359.03934416036975	0	1
504.88258327960961	253.56156349814555	0	1
668.39024913034916	439.60718245664469	0	1
472.03204705249993	310.46036129938153	0	1
612.83555449518246	514.23008774923142	0	1
432.79808715237556	363.16071530379054	0	1
548.99331029498694	581.89891325843894	0	1
387.71127558165966	410.94994363007083	0	1
477.72687336222901	641.69855420403496	0	1
337.38133412114752	453.18177894676069	0	1
563.31851851851854	0	0	20
281.65925925925933	487.84814745925178	0	20
561.65925925925922	0	0	20
280.82962962962966	486.41118678926864	0	20
[NumSegments] = 207
2	1	11.851851851851851	0	0	2
4	3	11.851851851851851	0	0	2
5	4	11.851851851851851	0	0	2
8	7	11.851851851851851	0	0	2
0	27	11.851851851851851	0	0	2
11	10	11.851851851851851	0	0	2
13	12	11.851851851851851	0	0	2
14	31	11.851851851851851	0	0	2
17	30	11.851851851851851	0	0	2
9	28	11.851851851851851	0	0	2
20	19	11.851851851851851	0	0	2
22	21	11.851851851851851	0	0	2
23	36	11.851851851851851	0	0	2
26	35	11.851851851851851	0	0	2
18	33	11.851851851851851	0	0	2
3	0	11.851851851851851	0	0	2
27	8	11.851851851851851	0	0	2
27	4	11.851851851851851	0	0	2
12	9	11.851851851851851	0	0	2
28	17	11.851851851851851	0	0	2
28	13	11.851851851851851	0	0	2
29	13	11.851851851851851	0	0	2
30	32	11.851851851851851	0	0	2
29	30	11.851851851851851	0	0	2
31	29	11.851851851851851	0	0	2
32	16	11.851851851851851	0	0	2
32	31	11.851851851851851	0	0	2
21	18	11.851851851851851	0	0	2
33	26	11.851851851851851	0	0	2
33	22	11.851851851851851	0	0	2
34	22	11.851851851851851	0	0	2
35	37	11.851851851851851	0	0	2
34	35	11.851851851851851	0	0	2
36	34	11.851851851851851	0	0	2
37	25	11.851851851851851	0	0	2
37	36	11.851851851851851	0	0	2
40	38	11.851851851851851	0	0	2
42	41	11.851851851851851	0	0	2
43	42	11.851851851851851	0	0	2
46	45	11.851851851851851	0	0	2
39	65	11.851851851851851	0	0	2
49	47	11.851851851851851	0	0	2
51	50	11.851851851851851	0	0	2
52	69	11.851851851851851	0	0	2
55	68	11.851851851851851	0	0	2
48	66	11.851851851851851	0	0	2
58	56	11.851851851851851	0	0	2
60	59	11.851851851851851	0	0	2
61	74	11.851851851851851	0	0	2
64	73	11.851851851851851	0	0	2
57	71	11.851851851851851	0	0	2
41	39	11.851851851851851	0	0	2
65	46	11.851851851851851	0	0	2
65	42	11.851851851851851	0	0	2
50	48	11.851851851851851	0	0	2
66	55	11.851851851851851	0	0	2
66	51	11.851851851851851	0	0	2
67	51	11.851851851851851	0	0	2
68	70	11.851851851851851	0	0	2
67	68	11.851851851851851	0	0	2
69	67	11.851851851851851	0	0	2
70	54	11.851851851851851	0	0	2
70	69	11.851851851851851	0	0	2
59	57	11.851851851851851	0	0	2
71	64	11.851851851851851	0	0	2
71	60	11.851851851851851	0	0	2
72	60	11.851851851851851	0	0	2
73	75	11.851851851851851	0	0	2
72	73	11.851851851851851	0	0	2
74	72	11.851851851851851	0	0	2
75	63	11.851851851851851	0	0	2
75	74	11.851851851851851	0	0	2
76	77	-1	4	0	2
79	78	-1	4	0	2
77	80	-1	2	0	2
80	79	-1	2	0	2
81	82	-1	10	0	1
84	83	-1	10	0	1
85	86	11.851851851851851	0	0	1
87	85	11.851851851851851	0	0	1
88	96	11.851851851851851	0	0	1