[Format]      =  4.0
[Frequency]   =  0
[Precision]   =  1e-008
[MinAngle]    =  15
[DoSmartMesh] =  1
[Depth]       =  300
[LengthUnits] =  millimeters
[ProblemType] =  planar
[Coordinates] =  cartesian
[ACSolver]    =  0
[PrevType]    =  0
[PrevSoln]    =  ""
[Comment]     =  "Add comments here."
[PointProps]   = 0
[BdryProps]   = 11
  <BeginBdry>
    <BdryName> = "A=0"
    <BdryType> = 0
    <A_0> = 0
    <A_1> = 0
    <A_2> = 0
    <Phi> = 0
    <c0> = 0
    <c0i> = 0
    <c1> = 0
    <c1i> = 0
    <Mu_ssd> = 0
    <Sigma_ssd> = 0
    <innerangle> = 0
    <outerangle> = 0
  <EndBdry>
  <BeginBdry>
    <BdryName> = "APr1"
    <BdryType> = 5
    <A_0> = 0
    <A_1> = 0
    <A_2> = 0
    <Phi> = 0
    <c0> = 0
    <c0i> = 0
    <c1> = 0
    <c1i> = 0
    <Mu_ssd> = 0
    <Sigma_ssd> = 0
    <innerangle> = 0
    <outerangle> = 0
  <EndBdry>
  <BeginBdry>
    <BdryName> = "APr2"
    <BdryType> = 5
    <A_0> = 0
    <A_1> = 0
    <A_2> = 0
    <Phi> = 0
    <c0> = 0
    <c0i> = 0
    <c1> = 0
    <c1i> = 0
    <Mu_ssd> = 0
    <Sigma_ssd> = 0
    <innerangle> = 0
    <outerangle> = 0
  <EndBdry>
  <BeginBdry>
    <BdryName> = "APr3"
    <BdryType> = 5
    <A_0> = 0
    <A_1> = 0
    <A_2> = 0
    <Phi> = 0
    <c0> = 0
    <c0i> = 0
    <c1> = 0
    <c1i> = 0
    <Mu_ssd> = 0
    <Sigma_ssd> = 0
    <innerangle> = 0
    <outerangle> = 0
  <EndBdry>
  <BeginBdry>
    <BdryName> = "APg1"
    <BdryType> = 5
    <A_0> = 0
    <A_1> = 0
    <A_2> = 0
    <Phi> = 0
    <c0> = 0
    <c0i> = 0
    <c1> = 0
    <c1i> = 0
    <Mu_ssd> = 0
    <Sigma_ssd> = 0
    <innerangle> = 0
    <outerangle> = 0
  <EndBdry>
  <BeginBdry>
    <BdryName> = "APg2"
    <BdryType> = 5
    <A_0> = 0
    <A_1> = 0
    <A_2> = 0
    <Phi> = 0
    <c0> = 0
    <c0i> = 0
    <c1> = 0
    <c1i> = 0
    <Mu_ssd> = 0
    <Sigma_ssd> = 0
    <innerangle> = 0
    <outerangle> = 0
  <EndBdry>
  <BeginBdry>
    <BdryName> = "APg3"
    <BdryType> = 5
    <A_0> = 0
    <A_1> = 0
    <A_2> = 0
    <Phi> = 0
    <c0> = 0
    <c0i> = 0
    <c1> = 0
    <c1i> = 0
    <Mu_ssd> = 0
    <Sigma_ssd> = 0
    <innerangle> = 0
    <outerangle> = 0
  <EndBdry>
  <BeginBdry>
    <BdryName> = "APs1"
    <BdryType> = 5
    <A_0> = 0
    <A_1> = 0
    <A_2> = 0
    <Phi> = 0
    <c0> = 0
    <c0i> = 0
    <c1> = 0
    <c1i> = 0
    <Mu_ssd> = 0
    <Sigma_ssd> = 0
    <innerangle> = 0
    <outerangle> = 0
  <EndBdry>
  <BeginBdry>
    <BdryName> = "APs2"
    <BdryType> = 5
    <A_0> = 0
    <A_1> = 0
    <A_2> = 0
    <Phi> = 0
    <c0> = 0
    <c0i> = 0
    <c1> = 0
    <c1i> = 0
    <Mu_ssd> = 0
    <Sigma_ssd> = 0
    <innerangle> = 0
    <outerangle> = 0
  <EndBdry>
  <BeginBdry>
    <BdryName> = "APs3"
    <BdryType> = 5
    <A_0> = 0
    <A_1> = 0
    <A_2> = 0
    <Phi> = 0
    <c0> = 0
    <c0i> = 0
    <c1> = 0
    <c1i> = 0
    <Mu_ssd> = 0
    <Sigma_ssd> = 0
    <innerangle> = 0
    <outerangle> = 0
  <EndBdry>
  <BeginBdry>
    <BdryName> = "AGap"
    <BdryType> = 7
    <A_0> = 0
    <A_1> = 0
    <A_2> = 0
    <Phi> = 0
    <c0> = 0
    <c0i> = 0
    <c1> = 0
    <c1i> = 0
    <Mu_ssd> = 0
    <Sigma_ssd> = 0
    <innerangle> = 0
    <outerangle> = 0
  <EndBdry>
[BlockProps]  = 17
  <BeginBlock>
    <BlockName> = "M270-35A"
    <Mu_x> = 1
    <Mu_y> = 1
    <H_c> = 0
    <H_cAngle> = 0
    <J_re> = 0
    <J_im> = 0
    <Sigma> = 0
    <d_lam> = 0
    <Phi_h> = 0
    <Phi_hx> = 0
    <Phi_hy> = 0
    <LamType> = 0
    <LamFill> = 1
    <NStrands> = 0
    <WireD> = 0
    <BHPoints> = 200
      0	0
      0.0045422769999999999	3.2767874890000002
      0.0090353559999999996	6.114592773
      0.013222249	8.4602422570000009
      0.017196487	10.462328400000001
      0.020991169	12.199266809999999
      0.024640190999999999	13.72982376
      0.028168996000000002	15.09561901
      0.031597466999999997	16.327217480000002
      0.034941272000000002	17.447599879999999
      0.038212956999999999	18.47443998
      0.041422729999999998	19.421601849999998
      0.044579012000000001	20.300151339999999
      0.047688851999999997	21.119056130000001
      0.050758219	21.885681389999998
      0.053792226999999998	22.60614816
      0.056795300999999999	23.285597330000002
      0.059771310000000001	23.928387470000001
      0.062723663999999998	24.538245379999999
      0.065655396000000005	25.11838217
      0.068569221	25.67158405
      0.071467592999999996	26.200284
      0.074352739000000001	26.70661905
      0.077226698999999996	27.19247648
      0.080091349000000006	27.65953137
      0.082948429000000004	28.109277410000001
      0.085799557999999998	28.54305239
      0.088646256000000007	28.96205934
      0.091489953999999998	29.36738437
      0.094332005999999996	29.760011540000001
      0.097173704999999999	30.140835630000002
      0.100016285	30.510672870000001
      0.102860934	30.870270300000001
      0.105708802	31.220313650000001
      0.108561001	31.561434299999998
      0.11141862	31.894215259999999
      0.114282722	32.21919639
      0.117154355	32.536878999999999
      0.120034552	32.847729870000002
      0.12292433699999999	33.152184810000001
      0.12582473199999999	33.45065185
      0.12873675200000001	33.743513989999997
      0.13166142	34.031131799999997
      0.13459976100000001	34.313845620000002
      0.137552811	34.591977620000002
      0.14052161499999999	34.865833639999998
      0.14350723800000001	35.135704879999999
      0.14651076099999999	35.401869419999997
      0.14953328699999999	35.664593680000003
      0.15257594699999999	35.924133650000002
      0.155639899	36.180736189999998
      0.158726334	36.434640119999997
      0.161836481	36.686077320000003
      0.16497160599999999	36.93527375
      0.16813302299999999	37.182450420000002
      0.17132209400000001	37.427824389999998
      0.17454023399999999	37.671609650000001
      0.17778891699999999	37.914018050000003
      0.18106968000000001	38.155260249999998
      0.18438413100000001	38.395546590000002
      0.18773395400000001	38.635088090000004
      0.191120915	38.87409736
      0.19454686800000001	39.112789630000002
      0.19801376800000001	39.351383830000003
      0.20152367299999999	39.590103640000002
      0.20507876	39.829178749999997
      0.208681327	40.068846100000002
      0.21233381500000001	40.309351300000003
      0.216038808	40.550950149999998
      0.21979905799999999	40.793910310000001
      0.22361749	41.038513199999997
      0.227497227	41.285056060000002
      0.2314416	41.53385428
      0.23545417299999999	41.785244059999997
      0.23953876299999999	42.039585369999998
      0.24369946200000001	42.297265359999997
      0.247940667	42.558702250000003
      0.25226710400000002	42.824349750000003
      0.25668386300000001	43.0947022
      0.26119642799999998	43.370300520000001
      0.26581071499999998	43.651739030000002
      0.27054201700000002	43.94020278
      0.275438138	44.23873004
      0.28051031599999998	44.548036490000001
      0.28576849199999999	44.868763260000001
      0.29122336399999998	45.201605100000002
      0.296886504	45.547319020000003
      0.30277045699999999	45.906731970000003
      0.30888884599999999	46.280749559999997
      0.31525650100000002	46.670366299999998
      0.321889598	47.076677459999999
      0.328805825	47.50089294
      0.33602457000000002	47.944353649999996
      0.34356714500000002	48.408550759999997
      0.351457032	48.895148689999999
      0.35972019	49.406012390000001
      0.36838539799999998	49.943240269999997
      0.37748466600000002	50.509203810000002
      0.38705371900000002	51.106595769999998
      0.39713256899999999	51.738489119999997
      0.40776619800000002	52.408409570000003
      0.41900536300000002	53.120425429999997
      0.43090757000000002	53.879259759999997
      0.44353822799999998	54.690431349999997
      0.45697202599999998	55.560433060000001
      0.47129457299999999	56.49695913
      0.486604327	57.509196449999997
      0.503014823	58.60819978
      0.520657166	59.807376320000003
      0.53968265500000001	61.123111049999999
      0.56026517099999995	62.575567960000001
      0.58260257699999995	64.189698669999999
      0.60691558199999995	65.996464399999994
      0.63344113800000001	68.034201780000004
      0.662415215	70.349880479999996
      0.69403682899999997	72.999622560000006
      0.72840307800000004	76.047204840000006
      0.76540934699999996	79.558509650000005
      0.80463064699999998	83.589963030000007
      0.84524547999999999	88.171938179999998
      0.88609953900000005	93.294734669999997
      0.92594964300000004	98.90894376
      0.963771241	104.9435902
      0.99893980100000002	111.3300564
      1.0312218310000001	118.0174305
      1.0606584889999999	124.9760964
      1.0874410889999999	132.19454709999999
      1.1118223309999999	139.6744898
      1.1340651580000001	147.42664859999999
      1.1544176930000001	155.46782519999999
      1.173103241	163.8190534
      1.1903180360000001	172.50453999999999
      1.2062325739999999	181.55112829999999
      1.220994358	190.98810510000001
      1.234730984	200.84723579999999
      1.2475531	211.16296399999999
      1.2595570490000001	221.97273730000001
      1.270827143	233.31744900000001
      1.281437594	245.2419931
      1.291454146	257.79594609999998
      1.3009354369999999	271.03439809999998
      1.309934159	285.01896390000002
      1.318498043	299.81902289999999
      1.326670706	315.51324579999999
      1.3344924010000001	332.19149570000002
      1.3420006879999999	349.95721329999998
      1.3492310569999999	368.93044570000001
      1.356217531	389.25173360000002
      1.362993272	411.08716509999999
      1.3695912379999999	434.63503709999998
      1.3760449050000001	460.1347695
      1.382389146	487.87903890000001
      1.3886613240000001	518.23060969999995
      1.394902732	551.64618570000005
      1.401160583	588.71104339999999
      1.4074908660000001	630.19074279999995
      1.4139626249999999	677.11087850000001
      1.420664664	730.8848299
      1.4277165590000001	793.52783980000004
      1.435287779	868.03580320000003
      1.4436331710000001	959.10175079999999
      1.453164339	1074.5891859999999
      1.464608755	1228.9034079999999
      1.479413587	1451.8548430000001
      1.5007295060000001	1812.597843
      1.531321148	2396.2922779999999
      1.5749716949999999	3340.7297119999998
      1.6351726849999999	4868.8615820000005
      1.6746062129999999	6056.7860730000002
      1.7053540309999999	7126.7301200000002
      1.7307497590000001	8135.9466300000004
      1.752580204	9119.3875740000003
      1.771845345	10098.25848
      1.789165838	11087.22133
      1.804957089	12097.58993
      1.819514077	13138.977849999999
      1.8330565510000001	14220.25051
      1.845754994	15350.15127
      1.8577465099999999	16537.778849999999
      1.869145125	17793.012470000001
      1.8800488470000001	19126.948680000001
      1.8905448170000001	20552.403480000001
      1.9007133519999999	22084.53774
      1.9106314310000001	23741.68173
      1.920376064	25546.46932
      1.930027954	27527.455720000002
      1.9396760099999999	29721.505959999999
      1.9494234969999999	32177.45292
      1.959397184	34961.935420000002
      1.969762051	38169.180130000001
      1.980746793	41938.394229999998
      1.9926918389999999	46487.096960000003
      2.0061495709999999	52181.595710000001
      2.022124024	59707.652569999998
      2.042772002	70576.241299999994
      2.0725625070000002	88161.987269999998
      2.1158769670000002	116616.322
      2.1803765140000002	162656.4026
      2.2792825830000001	237150.818
      2.3747656959999999	310949.48619999998
  <EndBlock>
  <BeginBlock>
    <BlockName> = "ShaftAir"
    <Mu_x> = 1
    <Mu_y> = 1
    <H_c> = 0
    <H_cAngle> = 0
    <J_re> = 0
    <J_im> = 0
    <Sigma> = 0
    <d_lam> = 0
    <Phi_h> = 0
    <Phi_hx> = 0
    <Phi_hy> = 0
    <LamType> = 0
    <LamFill> = 1
    <NStrands> = 0
    <WireD> = 0
    <BHPoints> = 3
      -100	-7.9577471545947675e-011
      0	0
      100	7.9577471545947675e-011
  <EndBlock>
  <BeginBlock>
    <BlockName> = "Copper"
    <Mu_x> = 1
    <Mu_y> = 1
    <H_c> = 0
    <H_cAngle> = 0
    <J_re> = 0
    <J_im> = 0
    <Sigma> = 58
    <d_lam> = 0
    <Phi_h> = 0
    <Phi_hx> = 0
    <Phi_hy> = 0
    <LamType> = 0
    <LamFill> = 1
    <NStrands> = 0
    <WireD> = 0
    <BHPoints> = 0
  <EndBlock>
  <BeginBlock>
    <BlockName> = "Aluminium"
    <Mu_x> = 1
    <Mu_y> = 1
    <H_c> = 0
    <H_cAngle> = 0
    <J_re> = 0
    <J_im> = 0
    <Sigma> = 29
    <d_lam> = 0
    <Phi_h> = 0
    <Phi_hx> = 0
    <Phi_hy> = 0
    <LamType> = 0
    <LamFill> = 1
    <NStrands> = 0
    <WireD> = 0
    <BHPoints> = 0
  <EndBlock>
  <BeginBlock>
    <BlockName> = "BMN-52UH"
    <Mu_x> = 1.05
    <Mu_y> = 1.05
    <H_c> = 1098926.9880154678
    <H_cAngle> = 0
    <J_re> = 0
    <J_im> = 0
    <Sigma> = 0.66600000000000004
    <d_lam> = 0
    <Phi_h> = 0
    <Phi_hx> = 0
    <Phi_hy> = 0
    <LamType> = 0
    <LamFill> = 1
    <NStrands> = 0
    <WireD> = 0
    <BHPoints> = 0
  <EndBlock>
  <BeginBlock>
    <BlockName> = "DW235"
    <Mu_x> = 1
    <Mu_y> = 1
    <H_c> = 0
    <H_cAngle> = 0
    <J_re> = 0
    <J_im> = 0
    <Sigma> = 0
    <d_lam> = 0
    <Phi_h> = 0
    <Phi_hx> = 0
    <Phi_hy> = 0
    <LamType> = 0
    <LamFill> = 1
    <NStrands> = 0
    <WireD> = 0
    <BHPoints> = 0
  <EndBlock>
  <BeginBlock>
    <BlockName> = "Air"
    <Mu_x> = 1
    <Mu_y> = 1
    <H_c> = 0
    <H_cAngle> = 0
    <J_re> = 0
    <J_im> = 0
    <Sigma> = 0
    <d_lam> = 0
    <Phi_h> = 0
    <Phi_hx> = 0
    <Phi_hy> = 0
    <LamType> = 0
    <LamFill> = 1
    <NStrands> = 0
    <WireD> = 0
    <BHPoints> = 0
  <EndBlock>
  <BeginBlock>
    <BlockName> = "BMN-52UH_1"
    <Mu_x> = 1.05
    <Mu_y> = 1.05
    <H_c> = 1098926.9880154678
    <H_cAngle> = 0
    <J_re> = 0
    <J_im> = 0
    <Sigma> = 0.66600000000000004
    <d_lam> = 0
    <Phi_h> = 0
    <Phi_hx> = 0
    <Phi_hy> = 0
    <LamType> = 0
    <LamFill> = 1
    <NStrands> = 0
    <WireD> = 0
    <BHPoints> = 0
  <EndBlock>
  <BeginBlock>
    <BlockName> = "BMN-52UH_2"
    <Mu_x> = 1.05
    <Mu_y> = 1.05
    <H_c> = 1098926.9880154678
    <H_cAngle> = 0
    <J_re> = 0
    <J_im> = 0
    <Sigma> = 0.66600000000000004
    <d_lam> = 0
    <Phi_h> = 0
    <Phi_hx> = 0
    <Phi_hy> = 0
    <LamType> = 0
    <LamFill> = 1
    <NStrands> = 0
    <WireD> = 0
    <BHPoints> = 0
  <EndBlock>
  <BeginBlock>
    <BlockName> = "BMN-52UH_3"
    <Mu_x> = 1.05
    <Mu_y> = 1.05
    <H_c> = 1098926.9880154678
    <H_cAngle> = 0
    <J_re> = 0
    <J_im> = 0
    <Sigma> = 0.66600000000000004
    <d_lam> = 0
    <Phi_h> = 0
    <Phi_hx> = 0
    <Phi_hy> = 0
    <LamType> = 0
    <LamFill> = 1
    <NStrands> = 0
    <WireD> = 0
    <BHPoints> = 0
  <EndBlock>
  <BeginBlock>
    <BlockName> = "BMN-52UH_4"
    <Mu_x> = 1.05
    <Mu_y> = 1.05
    <H_c> = 1098926.9880154678
    <H_cAngle> = 0
    <J_re> = 0
    <J_im> = 0
    <Sigma> = 0.66600000000000004
    <d_lam> = 0
    <Phi_h> = 0
    <Phi_hx> = 0
    <Phi_hy> = 0
    <LamType> = 0
    <LamFill> = 1
    <NStrands> = 0
    <WireD> = 0
    <BHPoints> = 0
  <EndBlock>
  <BeginBlock>
    <BlockName> = "BMN-52UH_5"
    <Mu_x> = 1.05
    <Mu_y> = 1.05
    <H_c> = 1098926.9880154678
    <H_cAngle> = 0
    <J_re> = 0
    <J_im> = 0
    <Sigma> = 0.66600000000000004
    <d_lam> = 0
    <Phi_h> = 0
    <Phi_hx> = 0
    <Phi_hy> = 0
    <LamType> = 0
    <LamFill> = 1
    <NStrands> = 0
    <WireD> = 0
    <BHPoints> = 0
  <EndBlock>
  <BeginBlock>
    <BlockName> = "BMN-52UH_6"
    <Mu_x> = 1.05
    <Mu_y> = 1.05
    <H_c> = 1098926.9880154678
    <H_cAngle> = 0
    <J_re> = 0
    <J_im> = 0
    <Sigma> = 0.66600000000000004
    <d_lam> = 0
    <Phi_h> = 0
    <Phi_hx> = 0
    <Phi_hy> = 0
    <LamType> = 0
    <LamFill> = 1
    <NStrands> = 0
    <WireD> = 0
    <BHPoints> = 0
  <EndBlock>
  <BeginBlock>
    <BlockName> = "BMN-52UH_7"
    <Mu_x> = 1.05
    <Mu_y> = 1.05
    <H_c> = 1098926.9880154678
    <H_cAngle> = 0
    <J_re> = 0
    <J_im> = 0
    <Sigma> = 0.66600000000000004
    <d_lam> = 0
    <Phi_h> = 0
    <Phi_hx> = 0
    <Phi_hy> = 0
    <LamType> = 0
    <LamFill> = 1
    <NStrands> = 0
    <WireD> = 0
    <BHPoints> = 0
  <EndBlock>
  <BeginBlock>
    <BlockName> = "BMN-52UH_8"
    <Mu_x> = 1.05
    <Mu_y> = 1.05
    <H_c> = 1098926.9880154678
    <H_cAngle> = 0
    <J_re> = 0
    <J_im> = 0
    <Sigma> = 0.66600000000000004
    <d_lam> = 0
    <Phi_h> = 0
    <Phi_hx> = 0
    <Phi_hy> = 0
    <LamType> = 0
    <LamFill> = 1
    <NStrands> = 0
    <WireD> = 0
    <BHPoints> = 0
  <EndBlock>
  <BeginBlock>
    <BlockName> = "BMN-52UH_9"
    <Mu_x> = 1.05
    <Mu_y> = 1.05
    <H_c> = 1098926.9880154678
    <H_cAngle> = 0
    <J_re> = 0
    <J_im> = 0
    <Sigma> = 0.66600000000000004
    <d_lam> = 0
    <Phi_h> = 0
    <Phi_hx> = 0
    <Phi_hy> = 0
    <LamType> = 0
    <LamFill> = 1
    <NStrands> = 0
    <WireD> = 0
    <BHPoints> = 0
  <EndBlock>
  <BeginBlock>
    <BlockName> = "BMN-52UH_10"
    <Mu_x> = 1.05
    <Mu_y> = 1.05
    <H_c> = 1098926.9880154678
    <H_cAngle> = 0
    <J_re> = 0
    <J_im> = 0
    <Sigma> = 0.66600000000000004
    <d_lam> = 0
    <Phi_h> = 0
    <Phi_hx> = 0
    <Phi_hy> = 0
    <LamType> = 0
    <LamFill> = 1
    <NStrands> = 0
    <WireD> = 0
    <BHPoints> = 0
  <EndBlock>
[CircuitProps]  = 6
  <BeginCircuit>
    <CircuitName> = "fase1"
    <TotalAmps_re> = 0
    <TotalAmps_im> = 0
    <CircuitType> = 1
  <EndCircuit>
  <BeginCircuit>
    <CircuitName> = "fase2"
    <TotalAmps_re> = 0
    <TotalAmps_im> = 0
    <CircuitType> = 1
  <EndCircuit>
  <BeginCircuit>
    <CircuitName> = "fase3"
    <TotalAmps_re> = 0
    <TotalAmps_im> = 0
    <CircuitType> = 1
  <EndCircuit>
  <BeginCircuit>
    <CircuitName> = "fase1n"
    <TotalAmps_re> = 0
    <TotalAmps_im> = 0
    <CircuitType> = 1
  <EndCircuit>
  <BeginCircuit>
    <CircuitName> = "fase2n"
    <TotalAmps_re> = 0
    <TotalAmps_im> = 0
    <CircuitType> = 1
  <EndCircuit>
  <BeginCircuit>
    <CircuitName> = "fase3n"
    <TotalAmps_re> = 0
    <TotalAmps_im> = 0
    <CircuitType> = 1
  <EndCircuit>
[NumPoints] = 229
534.89606820074096	103.37248605201975	0	2
537.77815717228691	85.175692442493173	0	2
542.8319088876251	105.95099699735488	0	2
545.93185663169197	111.26868832287668	0	2
542.61091189252716	113.20463279991213	0	2
527.08410056096693	108.15966597859597	0	2
530.89702196417431	84.085827693758802	0	2
506.54766065487524	84.848959104664047	0	2
509.80205441312694	82.484503636418992	0	2
518.80561750386937	83.910527937472878	0	2
521.17007297211444	87.164921695724587	0	2
516.75324228644104	115.05169312745797	0	2
530.82645009343116	119.62435553312775	0	2
540.16626083522431	136.53835996419542	0	2
538.24262359247473	137.60058079167919	0	2
500.15281105192122	125.22445047143418	0	2
476.83365341623903	83.172418958199856	0	2
480.08804717449078	80.807963489954787	0	2
495.97274547334581	83.323852539743058	0	2
498.33720094159082	86.578246297994767	0	2
491.346659445586	130.71478825679401	0	2
522.71775544248226	140.90787523859885	0	2
533.32472753194975	161.20498779315511	0	2
526.19638219270746	164.93015608269585	0	2
466.93426057129193	145.67472552734796	0	2
528.01493299262836	102.2826213032854	0	2
516.75490793911899	115.0411766103396	0	2
502.1324956218798	112.72521401927906	0	2
519.4584697105696	115.93067480034671	0	2
514.88357121367972	130.01076458847254	0	2
530.1198132582382	119.39475530728987	0	2
525.54491476134831	133.4748450954157	0	2
491.34668867116244	130.71460373376658	0	2
469.84314114581065	127.30877639397167	0	2
494.05188686971445	131.59376992968276	0	2
487.32409496252325	152.2997843239861	0	2
522.0319695791178	140.6850499041937	0	2
515.3041776719266	161.39106429849704	0	2
540.66024614383286	66.978898832966593	0	2
549.00448284366462	66.978898832966593	0	2
553.59596533626041	62.879410380773848	0	2
551.03579894539189	60.011989408921636	0	2
534.7099433673817	60.011989408921643	0	2
510.33967926649643	79.090073904130321	0	2
507.97522379825136	75.835680145878612	0	2
519.34324235723898	80.516098205184207	0	2
522.59763611549056	78.151642736939152	0	2
527.01446680116396	50.264871305205773	0	2
541.81191318406911	50.264871305205766	0	2
555.92131586314792	37.06485741785351	0	2
554.42007241591455	35.460188779108485	0	2
514.37007340120545	35.460188779108471	0	2
481.56189965994082	71.502425127536739	0	2
479.19744419169581	68.248031369285016	0	2
497.44659795879585	74.01831417732501	0	2
500.7009917170476	71.653858709079927	0	2
507.69153321305242	27.517316750280685	0	2
540.67705558674106	27.517316750280685	0	2
557.03703822668899	11.491350227800055	0	2
551.40871924977523	5.7457248001369123	0	2
489.09683703664291	5.7457248001369123	0	2
533.77911093572027	65.889034084232208	0	2
527.01280114848601	50.275387822324134	0	2
512.39038883124681	47.959425231263594	0	2
529.85891124560851	50.26487130520578	0	2
529.8589112456084	35.460188779108471	0	2
541.06891124560832	50.264871305205766	0	2
541.06891124560843	35.460188779108456	0	2
507.69150398747598	27.517501273308106	0	2
486.18795646212419	24.111673933513195	0	2
510.53597765749686	27.517316750280699	0	2
510.53597765749686	5.7457248001369123	0	2
539.95597765749687	27.517316750280706	0	2
539.95597765749687	5.7457248001369123	0	2
560	0	0	20
247.11000000000001	0	0	2
532.59164912528593	173.04951684997053	0	20
235.01557574169541	76.361189479993257	0	2
0	0	0	2
800	0	0	1
564.97777777777776	0	0	20
760.8452130361228	247.2135954999579	0	1
537.32579711751077	174.58773477752584	0	20
571.94792488858104	12.695489485517388	0	1
571.99525037413605	9.9842142339126188	0	1
572.54841669697544	15.103930581369745	0	1
767.76264225486682	21.92096155358692	0	1
771.77512625424038	18.134406347777201	0	1
771.88242066073406	13.473257769582871	0	1
771.93786335452842	8.8112041163767358	0	1
768.05997252291252	4.8869219055841207	0	1
572.72675524678334	4.8869219055841242	0	1
572.04257585969106	7.2729389823078492	0	1
672.03437808372496	4.8869219055841233	0	1
671.79554401328687	18.569716637100793	0	1
564.83789683413568	12.571383484185596	0	1
564.93254780524569	7.1488329809760565	0	1
571.15644347281818	32.648450454994766	0	1
571.29836227066903	29.940478474644138	0	1
571.67251609574475	35.076381255492365	0	1
766.52991147200248	48.702137697770191	0	1
770.67210004545632	45.057922831187526	0	1
770.94200083053113	40.403358219552636	0	1
771.16011307623137	35.746079485576814	0	1
767.42154002500808	31.688851403185822	0	1
572.2073144671167	24.871820430968651	0	1
571.44028106851999	27.23250649429351	0	1
671.45444178342825	28.337606486699698	0	1
670.73823055463924	42.003730840508979	0	1
564.05507789234139	32.276283655044949	0	1
564.33891548804297	26.860339694343693	0	1
569.66909591058925	52.561634316700989	0	1
569.90543511454166	49.860264854331461	0	1
570.10012059305188	55.006096762157512	0	1
764.36328206689063	75.423977789157945	0	1
768.63012859570313	71.926543176269007	0	1
769.06230692682743	67.284233401192111	0	1
769.44282298825999	62.637403763185155	0	1
765.84812259280943	58.452172916646106	0	1
570.9907272165517	44.826416474368273	0	1
570.14177431849419	47.158895391961927	0	1
670.05644167544619	51.753766059384894	0	1
668.86372588136464	65.386569968066723	0	1
562.58504472415916	51.941860146050985	0	1
563.0577231320641	46.539121221311923	0	1
567.48769430579057	72.410779923491404	0	1
567.81816597292993	69.719304181678794	0	1
567.8331459106081	74.868795812957615	0	1
761.26539374371794	102.05392538178273	0	1
765.6516997326512	98.70753210792482	0	1
766.24562906710059	94.08313310877385	0	1
766.78808534405823	89.452414012860459	0	1
763.34163719309117	85.144279461274451	0	1
569.07847571925242	64.726398434274003	0	1
568.14863764006918	67.027828439866198	0	1
667.84208100756518	75.106871640183243	0	1
666.1743137886624	88.689745632147378	0	1
560.42958833856358	71.544153481499251	0	1
561.09053167284196	66.161201997874045	0	1
564.61489636025851	92.171704148970633	0	1
565.03909786176348	89.493401276316291	0	1
564.87435400786285	94.640278768713529	0	1
757.24002080221305	128.55953598653193	0	1
761.74044221307827	125.36826111643684	0	1
762.49539893944643	120.76740701105822	0	1
763.1991345325149	116.15844027514915	0	1
759.90513759221835	111.73265081685005	0	1
566.47288975910828	84.547521248024921	0	1
565.46329936326833	86.815098403661949	0	1
664.81405763716282	98.368471067214699	0	1
662.67327091089521	111.88486650278327	0	1
557.59133482713764	91.059281286462337	0	1
558.43973783014746	85.702675541153667	0	1
561.05420213576883	111.82033135090694	0	1
561.57161664745308	109.15846444690027	0	1
561.22734971698299	114.29645712300717	0	1
752.29206753924382	154.90851659975991	0	1
756.90112130178852	151.87624821027873	0	1
757.81618562159656	147.30454443069257	0	1
758.68034313735791	142.72294537079861	0	1
755.54281063560245	138.18489314850078	0	1
563.17714384125225	104.26563593068239	0	1
562.08903115913733	106.49659754289358	0	1
660.9760607442845	121.51022366475215	0	1
658.36486272951515	134.943672898128	0	1
554.0737421645855	110.46346738378486	0	1
555.108571187954	105.13973357577152	0	1
556.8099497897515	131.33272270369378	0	1
557.41994692173409	128.69053484312815	0	1
556.89657635091908	133.81338285031597	0	1
746.42756227368784	181.0687650473389	0	1
751.13963296587247	178.19919749041895	0	1
752.21369001420169	173.66221395346378	0	1
753.23721660983597	169.11356454229821	0	1
750.25997114667518	164.46877847360111	0	1
559.19525332441435	123.85671899684833	0	1
558.0299440537168	126.04834698256252	0	1
656.33276633694641	144.5039347719692	0	1
653.25433837623211	157.83807121452571	0	1
549.88109599572317	129.733070761693	0	1
551.10109025968859	124.44869504056172	0	1
551.88731028991276	150.68510536412128	0	1
552.5891468546514	148.06581564590692	0	1
551.88731028991288	153.16727758299314	0	1
739.65365000185284	207.00840909621274	0	1
744.46299669137807	204.30503849789926	0	1
745.69473789516076	199.80830281914604	0	1
746.8763865611736	195.29814488535061	0	1
744.06305545159489	190.55228392660453	0	1
554.53206952882613	143.29690172958161	0	1
553.29098341939005	145.44652592769259	0	1
650.88983155413905	167.32159009379137	0	1
647.34792423775423	180.54016815423952	0	1
545.01850441407942	148.84461437672559	0	1
546.42217754355681	143.60603494029689	0	1
546.29228111420912	169.85390143492367	0	1
547.0851020319592	167.26070106011161	0	1
546.20565455304165	172.33456158154584	0	1
731.97858369240134	232.69584528580381	0	1
736.87934693114903	230.16196528674843	0	1
738.26727160346343	225.71095604595274	0	1
739.60560268297434	221.24478452223323	0	1
736.95961353757411	216.40363077397254	0	1
549.19327382563404	162.56249926075293	0	1
547.87792294970939	164.66750068529956	0	1
644.6538877734755	189.93538983199934	0	1
640.6528163698963	203.02230470913841	0	1
539.49189173847208	167.77481375689533	0	1
541.07753357397235	162.58841300727121	0	1
799.51266161527656	27.919597362000776	0	1
564.63360858074418	19.717440092541882	0	1
798.05124020785934	55.805178995300238	0	1
563.6015203067949	39.410857521569817	0	1
795.61751629461867	83.622770614122771	0	1
561.88277039651064	59.05625889148493	0	1
792.21445499325625	111.33848076805235	0	1
559.47945288190408	78.629709306860079	0	1
787.84620240976642	138.91854213354426	0	1
556.39449583516387	98.107361533423031	0	1
782.51808058704455	166.32935265420744	0	1
552.63165780125053	117.46548505223807	0	1
776.23658102079719	193.53751647973419	0	1
548.19552321868741	136.68049497168784	0	1
769.00935675065512	220.50988465359933	0	1
543.09149683412932	155.7289807620308	0	1
563.31851851851854	0	0	20
535.7477477867692	174.07499546834075	0	20
561.65925925925922	0	0	20
534.1696984560275	173.56225615915562	0	20
[NumSegments] = 208
0	1	3.5555555555555558	0	0	2
2	0	3.5555555555555558	0	0	2
5	4	3.5555555555555558	0	0	2
6	25	3.5555555555555558	0	0	2
9	8	3.5555555555555558	0	0	2
11	26	3.5555555555555558	0	0	2
12	30	3.5555555555555558	0	0	2
15	29	3.5555555555555558	0	0	2
7	27	3.5555555555555558	0	0	2
18	17	3.5555555555555558	0	0	2
20	32	3.5555555555555558	0	0	2
21	36	3.5555555555555558	0	0	2
24	35	3.5555555555555558	0	0	2
16	33	3.5555555555555558	0	0	2
1	6	3.5555555555555558	0	0	2
25	5	3.5555555555555558	0	0	2
25	0	3.5555555555555558	0	0	2
10	7	3.5555555555555558	0	0	2
26	10	3.5555555555555558	0	0	2
27	15	3.5555555555555558	0	0	2
27	26	3.5555555555555558	0	0	2
28	11	3.5555555555555558	0	0	2
29	31	3.5555555555555558	0	0	2
28	29	3.5555555555555558	0	0	2
30	28	3.5555555555555558	0	0	2
31	14	3.5555555555555558	0	0	2
31	30	3.5555555555555558	0	0	2
19	16	3.5555555555555558	0	0	2
32	19	3.5555555555555558	0	0	2
33	24	3.5555555555555558	0	0	2
33	32	3.5555555555555558	0	0	2
34	20	3.5555555555555558	0	0	2
35	37	3.5555555555555558	0	0	2
34	35	3.5555555555555558	0	0	2
36	34	3.5555555555555558	0	0	2
37	23	3.5555555555555558	0	0	2
37	36	3.5555555555555558	0	0	2
38	1	3.5555555555555558	0	0	2
39	38	3.5555555555555558	0	0	2
42	41	3.5555555555555558	0	0	2
6	61	3.5555555555555558	0	0	2
45	43	3.5555555555555558	0	0	2
47	62	3.5555555555555558	0	0	2
48	66	3.5555555555555558	0	0	2
51	65	3.5555555555555558	0	0	2
44	63	3.5555555555555558	0	0	2
54	52	3.5555555555555558	0	0	2
56	68	3.5555555555555558	0	0	2
57	72	3.5555555555555558	0	0	2
60	71	3.5555555555555558	0	0	2
53	69	3.5555555555555558	0	0	2
61	42	3.5555555555555558	0	0	2
61	38	3.5555555555555558	0	0	2
46	44	3.5555555555555558	0	0	2
62	46	3.5555555555555558	0	0	2
63	51	3.5555555555555558	0	0	2
63	62	3.5555555555555558	0	0	2
64	47	3.5555555555555558	0	0	2
65	67	3.5555555555555558	0	0	2
64	65	3.5555555555555558	0	0	2
66	64	3.5555555555555558	0	0	2
67	50	3.5555555555555558	0	0	2
67	66	3.5555555555555558	0	0	2
55	53	3.5555555555555558	0	0	2
68	55	3.5555555555555558	0	0	2
69	60	3.5555555555555558	0	0	2
69	68	3.5555555555555558	0	0	2
70	56	3.5555555555555558	0	0	2
71	73	3.5555555555555558	0	0	2
70	71	3.5555555555555558	0	0	2
72	70	3.5555555555555558	0	0	2
73	59	3.5555555555555558	0	0	2
73	72	3.5555555555555558	0	0	2
74	75	-1	4	0	2
77	76	-1	4	0	2
75	78	-1	2	0	2
78	77	-1	2	0	2
79	80	-1	10	0	1
82	81	-1	10	0	1
83	84	3.5555555555555558	0	0	1
85	83	3.5555555555555558	0	0	1
86	94	3.5555555555555558	0	0	1
88	87	3.5555555555555558	0	0	1
89	88	3.5555555555555558	0	0	1
91	93	3.5555555555555558	0	0	1