[Format]      =  4.0
[Frequency]   =  0
[Precision]   =  1e-008
[MinAngle]    =  15
[DoSmartMesh] =  1
[Depth]       =  300
[LengthUnits] =  millimeters
[ProblemType] =  planar
[Coordinates] =  cartesian
[ACSolver]    =  0
[PrevType]    =  0
[PrevSoln]    =  ""
[Comment]     =  "Add comments here."
[PointProps]   = 0
[BdryProps]   = 11
  <BeginBdry>
    <BdryName> = "A=0"
    <BdryType> = 0
    <A_0> = 0
    <A_1> = 0
    <A_2> = 0
    <Phi> = 0
    <c0> = 0
    <c0i> = 0
    <c1> = 0
    <c1i> = 0
    <Mu_ssd> = 0
    <Sigma_ssd> = 0
    <innerangle> = 0
    <outerangle> = 0
  <EndBdry>
  <BeginBdry>
    <BdryName> = "APr1"
    <BdryType> = 5
    <A_0> = 0
    <A_1> = 0
    <A_2> = 0
    <Phi> = 0
    <c0> = 0
    <c0i> = 0
    <c1> = 0
    <c1i> = 0
    <Mu_ssd> = 0
    <Sigma_ssd> = 0
    <innerangle> = 0
    <outerangle> = 0
  <EndBdry>
  <BeginBdry>
    <BdryName> = "APr2"
    <BdryType> = 5
    <A_0> = 0
    <A_1> = 0
    <A_2> = 0
    <Phi> = 0
    <c0> = 0
    <c0i> = 0
    <c1> = 0
    <c1i> = 0
    <Mu_ssd> = 0
    <Sigma_ssd> = 0
    <innerangle> = 0
    <outerangle> = 0
  <EndBdry>
  <BeginBdry>
    <BdryName> = "APr3"
    <BdryType> = 5
    <A_0> = 0
    <A_1> = 0
    <A_2> = 0
    <Phi> = 0
    <c0> = 0
    <c0i> = 0
    <c1> = 0
    <c1i> = 0
    <Mu_ssd> = 0
    <Sigma_ssd> = 0
    <innerangle> = 0
    <outerangle> = 0
  <EndBdry>
  <BeginBdry>
    <BdryName> = "APg1"
    <BdryType> = 5
    <A_0> = 0
    <A_1> = 0
    <A_2> = 0
    <Phi> = 0
    <c0> = 0
    <c0i> = 0
    <c1> = 0
    <c1i> = 0
    <Mu_ssd> = 0
    <Sigma_ssd> = 0
    <innerangle> = 0
    <outerangle> = 0
  <EndBdry>
  <BeginBdry>
    <BdryName> = "APg2"
    <BdryType> = 5
    <A_0> = 0
    <A_1> = 0
    <A_2> = 0
    <Phi> = 0
    <c0> = 0
    <c0i> = 0
    <c1> = 0
    <c1i> = 0
    <Mu_ssd> = 0
    <Sigma_ssd> = 0
    <innerangle> = 0
    <outerangle> = 0
  <EndBdry>
  <BeginBdry>
    <BdryName> = "APg3"
    <BdryType> = 5
    <A_0> = 0
    <A_1> = 0
    <A_2> = 0
    <Phi> = 0
    <c0> = 0
    <c0i> = 0
    <c1> = 0
    <c1i> = 0
    <Mu_ssd> = 0
    <Sigma_ssd> = 0
    <innerangle> = 0
    <outerangle> = 0
  <EndBdry>
  <BeginBdry>
    <BdryName> = "APs1"
    <BdryType> = 5
    <A_0> = 0
    <A_1> = 0
    <A_2> = 0
    <Phi> = 0
    <c0> = 0
    <c0i> = 0
    <c1> = 0
    <c1i> = 0
    <Mu_ssd> = 0
    <Sigma_ssd> = 0
    <innerangle> = 0
    <outerangle> = 0
  <EndBdry>
  <BeginBdry>
    <BdryName> = "APs2"
    <BdryType> = 5
    <A_0> = 0
    <A_1> = 0
    <A_2> = 0
    <Phi> = 0
    <c0> = 0
    <c0i> = 0
    <c1> = 0
    <c1i> = 0
    <Mu_ssd> = 0
    <Sigma_ssd> = 0
    <innerangle> = 0
    <outerangle> = 0
  <EndBdry>
  <BeginBdry>
    <BdryName> = "APs3"
    <BdryType> = 5
    <A_0> = 0
    <A_1> = 0
    <A_2> = 0
    <Phi> = 0
    <c0> = 0
    <c0i> = 0
    <c1> = 0
    <c1i> = 0
    <Mu_ssd> = 0
    <Sigma_ssd> = 0
    <innerangle> = 0
    <outerangle> = 0
  <EndBdry>
  <BeginBdry>
    <BdryName> = "AGap"
    <BdryType> = 7
    <A_0> = 0
    <A_1> = 0
    <A_2> = 0
    <Phi> = 0
    <c0> = 0
    <c0i> = 0
    <c1> = 0
    <c1i> = 0
    <Mu_ssd> = 0
    <Sigma_ssd> = 0
    <innerangle> = 1
    <outerangle> = 0
  <EndBdry>
[BlockProps]  = 11
  <BeginBlock>
    <BlockName> = "M600-50A"
    <Mu_x> = 1
    <Mu_y> = 1
    <H_c> = 0
    <H_cAngle> = 0
    <J_re> = 0
    <J_im> = 0
    <Sigma> = 0
    <d_lam> = 0
    <Phi_h> = 0
    <Phi_hx> = 0
    <Phi_hy> = 0
    <LamType> = 0
    <LamFill> = 1
    <NStrands> = 0
    <WireD> = 0
    <BHPoints> = 208
      0	0
      0.0061294119999999999	8.2635015680000006
      0.012398954	15.54584049
      0.018188152999999999	21.42337126
      0.023698273999999998	26.396066560000001
      0.028962854999999999	30.670770340000001
      0.034031080999999998	34.409892589999998
      0.038937833999999998	37.72521158
      0.043710287	40.697869570000002
      0.048369641999999997	43.388214720000001
      0.052932743999999997	45.842257519999997
      0.057413198999999998	48.095830579999998
      0.061822165999999998	50.17736026
      0.066168929000000001	52.109762629999999
      0.070461307000000001	53.911772880000001
      0.074705967999999998	55.598898519999999
      0.078908651999999996	57.184116670000002
      0.083074354000000003	58.67839326
      0.087207454000000004	60.091076020000003
      0.091311829999999997	61.430196219999999
      0.095390935999999996	62.702703470000003
      0.099447875000000005	63.914650479999999
      0.10348545000000001	65.071340269999993
      0.107506212	66.177444339999994
      0.111512495	67.237098649999993
      0.115506446	68.253982050000005
      0.119490053	69.231381029999994
      0.123465163	70.172243330000001
      0.127433505	71.079222909999999
      0.131396704	71.954717669999994
      0.13535628999999999	72.800901379999999
      0.139313718	73.619750830000001
      0.14327037200000001	74.413069070000006
      0.147227575	75.182505329999998
      0.151186599	75.929572239999999
      0.15514867099999999	76.655660710000006
      0.15911497799999999	77.362052919999996
      0.16308667299999999	78.049933670000001
      0.167064883	78.720400249999997
      0.171050709	79.374471249999999
      0.17504523399999999	80.013094219999999
      0.17904952399999999	80.637152520000001
      0.183064634	81.247471390000001
      0.18709161099999999	81.844823349999999
      0.19113149500000001	82.429933079999998
      0.19518532499999999	83.003481679999993
      0.19925414	83.566110629999997
      0.203338983	84.118425299999998
      0.20744090200000001	84.6609981
      0.21156095499999999	85.194371430000004
      0.21570021	85.719060249999998
      0.21985974999999999	86.23555451
      0.224040674	86.744321339999999
      0.228244101	87.245807119999995
      0.232471172	87.740439260000002
      0.23672305199999999	88.228628009999994
      0.241000933	88.710768049999999
      0.245306038	89.187239969999993
      0.249639624	89.658411700000002
      0.25400298399999999	90.124639849999994
      0.258397449	90.586270990000003
      0.26282439699999999	91.043642790000007
      0.267285249	91.497085290000001
      0.27178147899999999	91.946921900000007
      0.27631461499999999	92.393470609999994
      0.28088624499999998	92.837044969999994
      0.28549801899999999	93.277955219999996
      0.29015165799999998	93.716509279999997
      0.294848956	94.153013889999997
      0.299591787	94.587775629999996
      0.30438211199999998	95.021102040000002
      0.30922198299999998	95.45330276
      0.31411355600000002	95.884690719999995
      0.31905909100000002	96.315583349999997
      0.324060968	96.746303900000001
      0.32912169099999999	97.177182860000002
      0.33424390300000001	97.608559369999995
      0.33943039400000002	98.040782919999998
      0.34468411100000002	98.474215020000003
      0.35000818	98.909231149999997
      0.35540591100000002	99.346222819999994
      0.36088082199999999	99.785599880000007
      0.366436651	100.2277931
      0.37207738099999998	100.67325700000001
      0.37780725700000001	101.1224732
      0.38363081700000001	101.57595360000001
      0.389552911	102.03424510000001
      0.39557873700000001	102.4979336
      0.401713873	102.9676498
      0.40796431599999999	103.44407510000001
      0.41433652900000001	103.9279489
      0.420837509	104.4200783
      0.42747497499999998	104.9213567
      0.43425898400000001	105.43288579999999
      0.44146202099999998	105.9749185
      0.44856258700000001	106.5079061
      0.45587690400000003	107.05707719999999
      0.46342101400000002	107.62377619999999
      0.47120716099999999	108.2090887
      0.47924850299999999	108.8142005
      0.48755929799999997	109.4404164
      0.496155022	110.0891769
      0.50505251799999995	110.7620768
      0.51427015700000001	111.4608879
      0.52382802100000003	112.1875854
      0.53374812500000002	112.944379
      0.54405466000000002	113.73375040000001
      0.55477427700000004	114.558498
      0.56593642099999997	115.4217907
      0.57757370900000005	116.3272333
      0.58972237000000005	117.2789456
      0.60242275199999995	118.28165920000001
      0.61571989900000001	119.3408371
      0.62966422099999997	120.4628209
      0.64431222899999996	121.65501310000001
      0.65972736300000001	122.92610569999999
      0.67598086099999999	124.28636400000001
      0.69315263800000004	125.74798269999999
      0.71133206000000004	127.3255305
      0.73061842099999996	129.03650049999999
      0.75112078999999998	130.90198509999999
      0.772956635	132.94748089999999
      0.79624826999999998	135.20380520000001
      0.82111564500000001	137.70804709999999
      0.84766332799999999	140.50436830000001
      0.87595905799999996	143.6442744
      0.90600166900000001	147.18571779999999
      0.93767904199999996	151.19014369999999
      0.97072398500000001	155.71669249999999
      1.0046871660000001	160.81373919999999
      1.0389539999999999	166.5100477
      1.0728218	172.80985770000001
      1.1056189649999999	179.69557180000001
      1.1368151129999999	187.13741469999999
      1.166076154	195.10516089999999
      1.1932571599999999	203.57694960000001
      1.2183581130000001	212.54344710000001
      1.2414717689999999	222.00841339999999
      1.262740478	231.98749659999999
      1.2823264919999999	242.50660869999999
      1.3003940249999999	253.6005657
      1.317099609	265.31223169999998
      1.332587655	277.69219570000001
      1.346989049	290.79894300000001
      1.360421377	304.69948410000001
      1.3729899480000001	319.47042970000001
      1.3847891750000001	335.19953839999999
      1.395904035	351.98780690000001
      1.406411522	369.95222330000001
      1.416382027	389.22936779999998
      1.4258806550000001	409.98013700000001
      1.4349684949999999	432.3959911
      1.443703884	456.70731569999998
      1.452143746	483.19477810000001
      1.460345062	512.205018
      1.468366627	544.17275689999997
      1.476271267	579.65265699999998
      1.484128812	619.36640990000001
      1.4920203320000001	664.27439319999996
      1.5000444559999999	715.68841520000001
      1.5083273020000001	775.45608200000004
      1.517038858	846.27605440000002
      1.52642144	932.26565330000005
      1.5368418420000001	1040.044543
      1.5488919160000001	1180.938134
      1.5635876129999999	1375.704356
      1.5827254589999999	1664.518061
      1.609038255	2120.3213700000001
      1.6429877180000001	2803.4219309999999
      1.6763000130000001	3588.174364
      1.7038913950000001	4346.5592559999996
      1.7268422349999999	5076.0393119999999
      1.746445904	5791.6494789999997
      1.7635818270000001	6506.5344940000004
      1.778835427	7231.1495919999998
      1.792609184	7974.1327339999998
      1.805191346	8743.1111569999994
      1.8167966790000001	9545.295204
      1.8275911469999999	10387.927960000001
      1.837707435	11278.663500000001
      1.8472551399999999	12225.930109999999
      1.8563277979999999	13239.325269999999
      1.865008022	14330.08987
      1.873371527	15511.71947
      1.8814906259999999	16800.793989999998
      1.88943763	18218.15107
      1.8972886259999999	19790.607090000001
      1.905128269	21553.57647
      1.913056538	23555.22162
      1.921199232	25863.341659999998
      1.92972568	28577.465530000001
      1.938881257	31851.611560000001
      1.949053186	35941.14198
      1.960921235	41311.621829999996
      1.975868577	48939.738250000002
      1.9972472800000001	61282.289870000001
      2.0280781640000001	81252.957920000001
      2.0737002590000002	113566.1776
      2.1433819129999998	165850.06529999999
      2.250195926	248560.18210000001
      2.3541325240000002	331270.29889999999
      2.4580691219999999	413980.41570000001
      2.5620057200000002	496690.53249999997
      2.665942319	579400.64930000005
      2.7698789170000002	662110.76610000001
      2.873815515	744820.88289999997
      2.9777521130000002	827530.99970000004
      3.081688711	910241.1165
  <EndBlock>
  <BeginBlock>
    <BlockName> = "ShaftAir"
    <Mu_x> = 1
    <Mu_y> = 1
    <H_c> = 0
    <H_cAngle> = 0
    <J_re> = 0
    <J_im> = 0
    <Sigma> = 0
    <d_lam> = 0
    <Phi_h> = 0
    <Phi_hx> = 0
    <Phi_hy> = 0
    <LamType> = 0
    <LamFill> = 1
    <NStrands> = 0
    <WireD> = 0
    <BHPoints> = 3
      -100	-7.9577471545947675e-011
      0	0
      100	7.9577471545947675e-011
  <EndBlock>
  <BeginBlock>
    <BlockName> = "Copper"
    <Mu_x> = 1
    <Mu_y> = 1
    <H_c> = 0
    <H_cAngle> = 0
    <J_re> = 0
    <J_im> = 0
    <Sigma> = 58
    <d_lam> = 0
    <Phi_h> = 0
    <Phi_hx> = 0
    <Phi_hy> = 0
    <LamType> = 0
    <LamFill> = 1
    <NStrands> = 0
    <WireD> = 0
    <BHPoints> = 0
  <EndBlock>
  <BeginBlock>
    <BlockName> = "Aluminium"
    <Mu_x> = 1
    <Mu_y> = 1
    <H_c> = 0
    <H_cAngle> = 0
    <J_re> = 0
    <J_im> = 0
    <Sigma> = 29
    <d_lam> = 0
    <Phi_h> = 0
    <Phi_hx> = 0
    <Phi_hy> = 0
    <LamType> = 0
    <LamFill> = 1
    <NStrands> = 0
    <WireD> = 0
    <BHPoints> = 0
  <EndBlock>
  <BeginBlock>
    <BlockName> = "FB14H"
    <Mu_x> = 1.05
    <Mu_y> = 1.05
    <H_c> = 356200
    <H_cAngle> = 0
    <J_re> = 0
    <J_im> = 0
    <Sigma> = 0
    <d_lam> = 0
    <Phi_h> = 0
    <Phi_hx> = 0
    <Phi_hy> = 0
    <LamType> = 0
    <LamFill> = 1
    <NStrands> = 0
    <WireD> = 0
    <BHPoints> = 0
  <EndBlock>
  <BeginBlock>
    <BlockName> = "DW235"
    <Mu_x> = 1
    <Mu_y> = 1
    <H_c> = 0
    <H_cAngle> = 0
    <J_re> = 0
    <J_im> = 0
    <Sigma> = 0
    <d_lam> = 0
    <Phi_h> = 0
    <Phi_hx> = 0
    <Phi_hy> = 0
    <LamType> = 0
    <LamFill> = 1
    <NStrands> = 0
    <WireD> = 0
    <BHPoints> = 0
  <EndBlock>
  <BeginBlock>
    <BlockName> = "Air"
    <Mu_x> = 1
    <Mu_y> = 1
    <H_c> = 0
    <H_cAngle> = 0
    <J_re> = 0
    <J_im> = 0
    <Sigma> = 0
    <d_lam> = 0
    <Phi_h> = 0
    <Phi_hx> = 0
    <Phi_hy> = 0
    <LamType> = 0
    <LamFill> = 1
    <NStrands> = 0
    <WireD> = 0
    <BHPoints> = 0
  <EndBlock>
  <BeginBlock>
    <BlockName> = "FB14H_1"
    <Mu_x> = 1.05
    <Mu_y> = 1.05
    <H_c> = 356203.92025328951
    <H_cAngle> = 0
    <J_re> = 0
    <J_im> = 0
    <Sigma> = 0
    <d_lam> = 0
    <Phi_h> = 0
    <Phi_hx> = 0
    <Phi_hy> = 0
    <LamType> = 0
    <LamFill> = 1
    <NStrands> = 0
    <WireD> = 0
    <BHPoints> = 0
  <EndBlock>
  <BeginBlock>
    <BlockName> = "FB14H_2"
    <Mu_x> = 1.05
    <Mu_y> = 1.05
    <H_c> = 356203.92025328951
    <H_cAngle> = 0
    <J_re> = 0
    <J_im> = 0
    <Sigma> = 0
    <d_lam> = 0
    <Phi_h> = 0
    <Phi_hx> = 0
    <Phi_hy> = 0
    <LamType> = 0
    <LamFill> = 1
    <NStrands> = 0
    <WireD> = 0
    <BHPoints> = 0
  <EndBlock>
  <BeginBlock>
    <BlockName> = "FB14H_3"
    <Mu_x> = 1.05
    <Mu_y> = 1.05
    <H_c> = 356203.92025328951
    <H_cAngle> = 0
    <J_re> = 0
    <J_im> = 0
    <Sigma> = 0
    <d_lam> = 0
    <Phi_h> = 0
    <Phi_hx> = 0
    <Phi_hy> = 0
    <LamType> = 0
    <LamFill> = 1
    <NStrands> = 0
    <WireD> = 0
    <BHPoints> = 0
  <EndBlock>
  <BeginBlock>
    <BlockName> = "FB14H_4"
    <Mu_x> = 1.05
    <Mu_y> = 1.05
    <H_c> = 356203.92025328951
    <H_cAngle> = 0
    <J_re> = 0
    <J_im> = 0
    <Sigma> = 0
    <d_lam> = 0
    <Phi_h> = 0
    <Phi_hx> = 0
    <Phi_hy> = 0
    <LamType> = 0
    <LamFill> = 1
    <NStrands> = 0
    <WireD> = 0
    <BHPoints> = 0
  <EndBlock>
[CircuitProps]  = 6
  <BeginCircuit>
    <CircuitName> = "fase1"
    <TotalAmps_re> = 497.16499314217646
    <TotalAmps_im> = 0
    <CircuitType> = 1
  <EndCircuit>
  <BeginCircuit>
    <CircuitName> = "fase2"
    <TotalAmps_re> = -325.30777600446743
    <TotalAmps_im> = -0
    <CircuitType> = 1
  <EndCircuit>
  <BeginCircuit>
    <CircuitName> = "fase3"
    <TotalAmps_re> = -171.8572171377088
    <TotalAmps_im> = -0
    <CircuitType> = 1
  <EndCircuit>
  <BeginCircuit>
    <CircuitName> = "fase1n"
    <TotalAmps_re> = -497.16499314217646
    <TotalAmps_im> = -0
    <CircuitType> = 1
  <EndCircuit>
  <BeginCircuit>
    <CircuitName> = "fase2n"
    <TotalAmps_re> = 325.30777600446743
    <TotalAmps_im> = 0
    <CircuitType> = 1
  <EndCircuit>
  <BeginCircuit>
    <CircuitName> = "fase3n"
    <TotalAmps_re> = 171.8572171377088
    <TotalAmps_im> = 0
    <CircuitType> = 1
  <EndCircuit>
[NumPoints] = 130
934.21910099574529	44.203361896181988	0	2
934.6851430280667	29.373663971567741	0	2
943.64029933407062	44.796093454768368	0	2
948.06964190359918	49.767908593606094	0	2
943.14919799287713	54.151485027142208	0	2
924.57080925930245	52.982631881860399	0	2
925.32199810326802	29.079415288158561	0	2
925.94668970349653	29.099047012582393	0	2
925.48064767117512	43.92874493719664	0	2
934.84286770101301	44.242605970887809	0	2
934.29390479682581	52.968121469109661	0	2
943.47579890191753	44.785743964816376	0	2
942.92683599773034	53.511259463038229	0	2
935.15118506038812	14.543966046953493	0	2
944.59101073836598	14.543966046953493	0	2
949.32379586769184	9.8600823707031218	0	2
944.68830837071732	5.1761986944567226	0	2
926.07318694723358	5.1761986944567226	0	2
926.41273173581794	14.269349087968145	0	2
935.77618506038823	14.543966046953496	0	2
935.77618506038823	5.8011986944567191	0	2
944.42618506038832	14.543966046953496	0	2
944.42618506038832	5.8011986944567262	0	2
950	0	0	20
875	0	0	2
948.12539200685796	59.650993552847709	0	20
873.27338737473758	54.9417045881492	0	2
0	0	0	2
1000	0	0	1
951.25	0	0	20
998.02672842827155	62.790519529313372	0	1
949.37292541739328	59.729481702259349	0	20
958.08501214148009	6.5108071109212799	0	1
958.09283582016963	5.0166082019206142	0	1
958.60032004977904	7.6311668568450752	0	1
986.99683289502298	7.9285453144641842	0	1
989.53475999037414	5.4336735807332346	0	1
989.53643549344122	5.1812480093812452	0	1
989.53740342833157	4.9288187331770885	0	1
987.02574124732666	2.4075071702009776	0	1
958.6276713178903	2.4075071702009772	0	1
958.10065949885916	3.5224092929199484	0	1
973.82678425597965	2.4075071702009776	0	1
973.79859961086231	7.7903286862911845	0	1
951.22796328035486	6.4749033589344034	0	1
951.24361063773392	3.4865055409330719	0	1
957.9642999658829	16.543309531392666	0	1
957.98777014399695	15.049274478140465	0	1
958.46784745413049	17.669004040449842	0	1
986.85968921754898	18.26372834478903	0	1
989.42360291494049	15.795570031103495	0	1
989.42792167222728	15.543175845912147	0	1
989.43153293893022	15.290770546570581	0	1
986.94641110433349	12.743295644574786	0	1
958.54989825908967	12.445917186955677	0	1
958.01124032211101	13.555239424888263	0	1
973.74817782017294	12.605079016401787	0	1
973.66362697558486	17.98731024545387	0	1
951.10800305743726	16.43560221268304	0	1
951.15494341366536	13.447532106178635	0	1
957.7385362095182	26.573997791547782	0	1
957.77765031328727	25.08029043182388	0	1
958.23026805805773	27.704903618649993	0	1
986.61432525425425	28.59690855148736	0	1
989.20394439165659	26.155734319219949	0	1
989.21090592956284	25.903399198055876	0	1
989.21716013206208	25.651045554662318	0	1
986.75885116548773	23.077686672977279	0	1
958.36700940206936	22.482962368638088	0	1
957.81676441705633	23.586583072099973	0	1
973.56278892352373	22.801268573642119	0	1
973.42188115141767	28.182319293349579	0	1
950.88374312397139	26.394498717436655	0	1
950.96197133150952	23.407083997988845	0	1
957.40774562992567	36.601771913383324	0	1
957.46249937004745	35.108556049032259	0	1
957.88760791481877	37.737765041962476	0	1
986.26076791206253	38.926952784905154	0	1
988.875808508555	36.513030336319972	0	1
988.88541206366938	36.260781950572763	0	1
988.89430851612144	36.008507636547975	0	1
986.46308199885004	33.409546972974184	0	1
958.07902480265363	32.517542040136824	0	1
957.51725311016924	33.615340184681202	0	1
973.27063789601357	32.99495771483641	0	1
973.07338864851477	38.374237832348904	0	1
950.55520807258631	36.350500767966942	0	1
950.66471555282988	33.364069039264812	0	1
956.97196450202011	46.625532238464082	0	1
957.04235187412996	45.132971617432403	0	1
957.43990460095972	47.766488094072145	0	1
985.79905596252058	49.252728239283186	0	1
988.43923124943296	46.866322288179148	0	1
988.45147576861746	46.614188299726891	0	1
988.46301349542591	46.362020979792284	0	1
986.05913603884255	43.737743539654133	0	1
957.68597604159879	42.548555796711462	0	1
957.11273924624004	43.640410996400718	0	1
972.87175677529478	43.185028587097889	0	1
972.618187683006	48.561948203731546	0	1
950.12243393085237	46.302516576455098	0	1
950.26320867507218	43.317395334391733	0	1
956.43124061411299	56.644179548512895	0	1
956.51725389944249	55.152437846892326	0	1
956.88720721219397	57.789973012482903	0	1
985.22924003754667	59.573102576981988	0	1
987.89426048990651	57.214474819663991	0	1
987.90914463041179	56.962482877839804	0	1
987.9233223663349	56.71045020498368	0	1
985.54705758269199	54.061143769875386	0	1
957.18790622113113	52.574903624664344	0	1
956.60326718477211	53.66069614527175	0	1
972.36618930317752	53.370363734323753	0	1
972.05632817280707	58.744333210250247	0	1
949.58546815733121	56.249454792218721	0	1
949.75749472799009	53.265971388977576	0	1
999.94516936551213	10.471784116245793	0	1
951.19784235894338	9.9612846405788105	0	1
999.78068347484555	20.942419883356958	0	1
951.04137515544676	19.921476914043307	0	1
999.50656036573162	31.410759078128294	0	1
950.78061554790213	29.879484573069536	0	1
999.12283009885834	41.87565372919962	0	1
950.41559213153903	39.834215609901136	0	1
998.6295347545738	52.335956242943823	0	1
949.94634493528838	49.784578376100306	0	1
950.83333333333337	0	0	20
948.95708094721488	59.703318985788805	0	20
950.41666666666663	0	0	20
948.54123647703636	59.677156269318253	0	20
[NumSegments] = 116
0	1	1.1428571428571428	0	0	2
2	11	1.1428571428571428	0	0	2
5	4	1.1428571428571428	0	0	2
6	5	1.1428571428571428	0	0	2
1	7	1.1428571428571428	0	0	2
8	0	1.1428571428571428	0	0	2
7	8	1.1428571428571428	0	0	2
9	0	1.1428571428571428	0	0	2
9	10	1.1428571428571428	0	0	2
11	9	1.1428571428571428	0	0	2
12	11	1.1428571428571428	0	0	2
10	12	1.1428571428571428	0	0	2
13	1	1.1428571428571428	0	0	2
14	21	1.1428571428571428	0	0	2
17	16	1.1428571428571428	0	0	2
6	17	1.1428571428571428	0	0	2
18	13	1.1428571428571428	0	0	2
7	18	1.1428571428571428	0	0	2
19	13	1.1428571428571428	0	0	2
19	20	1.1428571428571428	0	0	2
21	19	1.1428571428571428	0	0	2
22	21	1.1428571428571428	0	0	2
20	22	1.1428571428571428	0	0	2
23	24	-1	4	0	2
26	25	-1	4	0	2
24	27	-1	2	0	2
27	26	-1	2	0	2
28	29	-1	10	0	1
31	30	-1	10	0	1
32	33	1.1428571428571428	0	0	1
34	32	1.1428571428571428	0	0	1
35	43	1.1428571428571428	0	0	1
37	36	1.1428571428571428	0	0	1
38	37	1.1428571428571428	0	0	1
40	42	1.1428571428571428	0	0	1
41	40	1.1428571428571428	0	0	1
33	41	1.1428571428571428	0	0	1
42	39	1.1428571428571428	0	0	1
43	34	1.1428571428571428	0	0	1
42	43	1.1428571428571428	0	0	1
32	44	1.1428571428571428	0	0	1
45	41	1.1428571428571428	0	0	1
46	47	1.1428571428571428	0	0	1
48	46	1.1428571428571428	0	0	1
49	57	1.1428571428571428	0	0	1
51	50	1.1428571428571428	0	0	1
52	51	1.1428571428571428	0	0	1
54	56	1.1428571428571428	0	0	1
55	54	1.1428571428571428	0	0	1
47	55	1.1428571428571428	0	0	1
56	53	1.1428571428571428	0	0	1
57	48	1.1428571428571428	0	0	1
56	57	1.1428571428571428	0	0	1
46	58	1.1428571428571428	0	0	1
59	55	1.1428571428571428	0	0	1
60	61	1.1428571428571428	0	0	1
62	60	1.1428571428571428	0	0	1
63	71	1.1428571428571428	0	0	1
65	64	1.1428571428571428	0	0	1
66	65	1.1428571428571428	0	0	1
68	70	1.1428571428571428	0	0	1
69	68	1.1428571428571428	0	0	1
61	69	1.1428571428571428	0	0	1
70	67	1.1428571428571428	0	0	1
71	62	1.1428571428571428	0	0	1
70	71	1.1428571428571428	0	0	1
60	72	1.1428571428571428	0	0	1
73	69	1.1428571428571428	0	0	1
74	75	1.1428571428571428	0	0	1
76	74	1.1428571428571428	0	0	1
77	85	1.1428571428571428	0	0	1
79	78	1.1428571428571428	0	0	1
80	79	1.1428571428571428	0	0	1
82	84	1.1428571428571428	0	0	1
83	82	1.1428571428571428	0	0	1
75	83	1.1428571428571428	0	0	1
84	81	1.1428571428571428	0	0	1
85	76	1.1428571428571428	0	0	1
84	85	1.1428571428571428	0	0	1
74	86	1.1428571428571428	0	0	1
87	83	1.1428571428571428	0	0	1
88	89	1.1428571428571428	0	0	1
90	88	1.1428571428571428	0	0	1
91	99	1.1428571428571428	0	0	1
93	92	1.1428571428571428	0	0	1
94	93	1.1428571428571428	0	0	1
96	98	1.1428571428571428	0	0	1
97	96	1.1428571428571428	0	0	1
89	97	1.1428571428571428	0	0	1
98	95	1.1428571428571428	0	0	1
99	90	1.1428571428571428	0	0	1
98	99	1.1428571428571428	0	0	1
88	100	1.1428571428571428	0	0	1
101	97	1.1428571428571428	0	0	1
102	103	1.1428571428571428	0	0	1
104	102	1.1428571428571428	0	0	1
105	113	1.1428571428571428	0	0	1
107	106	1.1428571428571428	0	0	1
108	107	1.1428571428571428	0	0	1
110	112	1.1428571428571428	0	0	1
111	110	1.1428571428571428	0	0	1
103	111	1.1428571428571428	0	0	1
112	109	1.1428571428571428	0	0	1
113	104	1.1428571428571428	0	0	1
112	113	1.1428571428571428	0	0	1
102	114	1.1428571428571428	0	0	1
115	111	1.1428571428571428	0	0	1
116	117	1.1428571428571428	0	0	1
118	119	1.1428571428571428	0	0	1
120	121	1.1428571428571428	0	0	1
122	123	1.1428571428571428	0	0	1
124	125	1.1428571428571428	0	0	1
126	29	0.11428571428571428	7	0	20
127	31	0.11428571428571428	7	0	20
128	23	0.11428571428571428	5	0	20
129	25	0.11428571428571428	5	0	20
[NumArcSegments] = 44
2	3	89.404922962653743	3.4587118049484351	0	0	2	3.4587118049484351
3	4	90.595077037347352	3.5313092329094	0	0	2	3.5313092329094
15	14	89.404922962654069	3.4587118049522654	0	0	2	3.4587118049522654
16	15	90.59507703734738	3.5313092329508748	0	0	2	3.5313092329508748
23	25	3.6000000000000001	0.017231813387393179	0	0	2	0.017231813387393179
24	26	3.6000000000000001	0.018708825963455449	0	0	2	0.018708825963455449
28	116	0.59999999999999987	1.1428571428571428	1	0	1	0.067000000000000004
29	45	0.21000000000000005	0.017209169742994499	0	0	1	0.017209169742994499
36	35	90.219698417904809	6.5176370037145412	0	0	1	6.5176370037145412
39	38	90.219698417907793	6.5176370037146656	0	0	1	6.5176370037146656
44	117	0.20999999999999999	0.017209169742994499	0	0	1	0.017209169742994499
45	44	0.17999999999999997	0.017209169742994499	0	0	1	0.017209169742994499
50	49	90.219698417903231	6.5176370037145839	0	0	1	6.5176370037145839
53	52	90.219698417908248	6.51763700371467	0	0	1	6.51763700371467
58	119	0.21000000000000019	0.017209169742994499	0	0	1	0.017209169742994499
59	58	0.17999999999999994	0.017209169742994499	0	0	1	0.017209169742994499
64	63	90.219698417904226	6.5176370037147118	0	0	1	6.5176370037147118
67	66	90.21969841790721	6.5176370037146683	0	0	1	6.5176370037146683
72	121	0.2099999999999998	0.017209169742994499	0	0	1	0.017209169742994499
73	72	0.18000000000000005	0.017209169742994499	0	0	1	0.017209169742994499
78	77	90.219698417903544	6.517637003714464	0	0	1	6.517637003714464
81	80	90.219698417908745	6.5176370037146549	0	0	1	6.5176370037146549
86	123	0.2099999999999998	0.017209169742994499	0	0	1	0.017209169742994499
87	86	0.18000000000000022	0.017209169742994499	0	0	1	0.017209169742994499
92	91	90.219698417904411	6.5176370037143005	0	0	1	6.5176370037143005
95	94	90.219698417909342	6.5176370037146674	0	0	1	6.5176370037146674
100	125	0.21000000000000019	0.017209169742994499	0	0	1	0.017209169742994499
101	100	0.18000000000000022	0.017209169742994499	0	0	1	0.017209169742994499
106	105	90.219698417902592	6.5176370037143325	0	0	1	6.5176370037143325
109	108	90.219698417906017	6.5176370037146389	0	0	1	6.5176370037146389
114	31	0.21000000000000019	0.017209169742994499	0	0	1	0.017209169742994499
115	114	0.17999999999999938	0.017209169742994499	0	0	1	0.017209169742994499
116	118	0.59999999999999976	1.1428571428571428	1	0	1	0.14999999999999999
117	59	0.20999999999999988	0.017209169742994499	0	0	1	0.017209169742994499
118	120	0.60000000000000031	1.1428571428571428	1	0	1	0.10000000000000001
119	73	0.20999999999999988	0.017209169742994499	0	0	1	0.017209169742994499
120	122	0.59999999999999976	1.1428571428571428	1	0	1	0.10000000000000001
121	87	0.21000000000000021	0.017209169742994499	0	0	1	0.017209169742994499
122	124	0.60000000000000064	1.1428571428571428	1	0	1	0.12
123	101	0.21000000000000027	0.017209169742994499	0	0	1	0.017209169742994499
124	30	0.60000000000000053	1.1428571428571428	1	0	1	0.055
125	115	0.21000000000000071	0.017209169742994499	0	0	1	0.017209169742994499
126	127	3.6000000000000001	0.11428571428571428	11	0	20	0.0094000000000000004
128	129	3.6000000000000001	0.11428571428571428	11	0	20	0.0094000000000000004
[NumHoles] = 0
[NumBlockLabels] = 33
930.08289534962091	36.651204454382189	8	1.1428571428571428	0	1.7999999999999747	201	1	0
938.88485184937167	48.876932716963019	9	1.1428571428571428	0	-86.400000000000034	202	1	0
930.54893738194232	21.821506529767944	10	1.1428571428571428	0	1.7999999999999747	203	1	0
940.10118506038816	10.172582370705108	11	1.1428571428571428	0	89.999999999999986	204	1	0
944.9530464101822	49.571829025172221	7	1.1428571428571428	0	0	2	1	0
899.94511921164167	28.28191474076041	1	1.1428571428571428	0	0	22	1	0
437.2841201600076	13.742207096681128	7	1.1428571428571428	0	0	2	1	0
965.9527638767953	5.0577630650833481	3	1.1428571428571428	1	0	1	1	0
981.67261999004666	5.1400727914088149	3	1.1428571428571428	1	0	1	1	0
954.66489816026717	4.9986593982792451	7	1.1428571428571428	0	0	10	1	0
994.76136387043402	5.2086059204004131	1	1.1428571428571428	0	0	12	1	0
965.84683627093796	15.172734554534149	3	1.1428571428571428	1	0	1	1	0
981.56496852481985	15.419654707321511	3	1.1428571428571428	1	0	1	1	0
954.56020839608834	14.995430035504942	7	1.1428571428571428	0	0	10	1	0
994.65227707694396	15.625246578866411	1	1.1428571428571428	0	0	12	1	0
965.63499267537895	25.286042182659866	3	1.1428571428571428	3	0	1	-1	0
981.34967739956244	25.697545684331832	3	1.1428571428571428	3	0	1	-1	0
954.35084034814292	24.990556254844108	7	1.1428571428571428	0	0	10	1	0
994.43411545256004	26.040173752964513	1	1.1428571428571428	0	0	12	1	0
965.31725632115581	35.396576911312458	3	1.1428571428571428	3	0	1	-1	0
981.02677022337241	35.972618635872848	3	1.1428571428571428	3	0	1	-1	0
954.03681697599711	34.982941978071956	7	1.1428571428571428	0	0	10	1	0
994.10690292116283	36.452245328564523	1	1.1428571428571428	0	0	12	1	0
964.89366205164026	45.503230006423557	3	1.1428571428571428	2	0	1	1	0
980.59628240666063	46.243746784405872	3	1.1428571428571428	2	0	1	1	0