[Format]      =  4.0
[Frequency]   =  0
[Precision]   =  1e-008
[MinAngle]    =  15
[DoSmartMesh] =  1
[Depth]       =  300
[LengthUnits] =  millimeters
[ProblemType] =  planar
[Coordinates] =  cartesian
[ACSolver]    =  0
[PrevType]    =  0
[PrevSoln]    =  ""
[Comment]     =  "Add comments here."
[PointProps]   = 0
[BdryProps]   = 11
  <BeginBdry>
    <BdryName> = "A=0"
    <BdryType> = 0
    <A_0> = 0
    <A_1> = 0
    <A_2> = 0
    <Phi> = 0
    <c0> = 0
    <c0i> = 0
    <c1> = 0
    <c1i> = 0
    <Mu_ssd> = 0
    <Sigma_ssd> = 0
    <innerangle> = 0
    <outerangle> = 0
  <EndBdry>
  <BeginBdry>
    <BdryName> = "APr1"
    <BdryType> = 5
    <A_0> = 0
    <A_1> = 0
    <A_2> = 0
    <Phi> = 0
    <c0> = 0
    <c0i> = 0
    <c1> = 0
    <c1i> = 0
    <Mu_ssd> = 0
    <Sigma_ssd> = 0
    <innerangle> = 0
    <outerangle> = 0
  <EndBdry>
  <BeginBdry>
    <BdryName> = "APr2"
    <BdryType> = 5
    <A_0> = 0
    <A_1> = 0
    <A_2> = 0
    <Phi> = 0
    <c0> = 0
    <c0i> = 0
    <c1> = 0
    <c1i> = 0
    <Mu_ssd> = 0
    <Sigma_ssd> = 0
    <innerangle> = 0
    <outerangle> = 0
  <EndBdry>
  <BeginBdry>
    <BdryName> = "APr3"
    <BdryType> = 5
    <A_0> = 0
    <A_1> = 0
    <A_2> = 0
    <Phi> = 0
    <c0> = 0
    <c0i> = 0
    <c1> = 0
    <c1i> = 0
    <Mu_ssd> = 0
    <Sigma_ssd> = 0
    <innerangle> = 0
    <outerangle> = 0
  <EndBdry>
  <BeginBdry>
    <BdryName> = "APg1"
    <BdryType> = 5
    <A_0> = 0
    <A_1> = 0
    <A_2> = 0
    <Phi> = 0
    <c0> = 0
    <c0i> = 0
    <c1> = 0
    <c1i> = 0
    <Mu_ssd> = 0
    <Sigma_ssd> = 0
    <innerangle> = 0
    <outerangle> = 0
  <EndBdry>
  <BeginBdry>
    <BdryName> = "APg2"
    <BdryType> = 5
    <A_0> = 0
    <A_1> = 0
    <A_2> = 0
    <Phi> = 0
    <c0> = 0
    <c0i> = 0
    <c1> = 0
    <c1i> = 0
    <Mu_ssd> = 0
    <Sigma_ssd> = 0
    <innerangle> = 0
    <outerangle> = 0
  <EndBdry>
  <BeginBdry>
    <BdryName> = "APg3"
    <BdryType> = 5
    <A_0> = 0
    <A_1> = 0
    <A_2> = 0
    <Phi> = 0
    <c0> = 0
    <c0i> = 0
    <c1> = 0
    <c1i> = 0
    <Mu_ssd> = 0
    <Sigma_ssd> = 0
    <innerangle> = 0
    <outerangle> = 0
  <EndBdry>
  <BeginBdry>
    <BdryName> = "APs1"
    <BdryType> = 5
    <A_0> = 0
    <A_1> = 0
    <A_2> = 0
    <Phi> = 0
    <c0> = 0
    <c0i> = 0
    <c1> = 0
    <c1i> = 0
    <Mu_ssd> = 0
    <Sigma_ssd> = 0
    <innerangle> = 0
    <outerangle> = 0
  <EndBdry>
  <BeginBdry>
    <BdryName> = "APs2"
    <BdryType> = 5
    <A_0> = 0
    <A_1> = 0
    <A_2> = 0
    <Phi> = 0
    <c0> = 0
    <c0i> = 0
    <c1> = 0
    <c1i> = 0
    <Mu_ssd> = 0
    <Sigma_ssd> = 0
    <innerangle> = 0
    <outerangle> = 0
  <EndBdry>
  <BeginBdry>
    <BdryName> = "APs3"
    <BdryType> = 5
    <A_0> = 0
    <A_1> = 0
    <A_2> = 0
    <Phi> = 0
    <c0> = 0
    <c0i> = 0
    <c1> = 0
    <c1i> = 0
    <Mu_ssd> = 0
    <Sigma_ssd> = 0
    <innerangle> = 0
    <outerangle> = 0
  <EndBdry>
  <BeginBdry>
    <BdryName> = "AGap"
    <BdryType> = 7
    <A_0> = 0
    <A_1> = 0
    <A_2> = 0
    <Phi> = 0
    <c0> = 0
    <c0i> = 0
    <c1> = 0
    <c1i> = 0
    <Mu_ssd> = 0
    <Sigma_ssd> = 0
    <innerangle> = 0
    <outerangle> = 0
  <EndBdry>
[BlockProps]  = 9
  <BeginBlock>
    <BlockName> = "M270-35A"
    <Mu_x> = 1
    <Mu_y> = 1
    <H_c> = 0
    <H_cAngle> = 0
    <J_re> = 0
    <J_im> = 0
    <Sigma> = 0
    <d_lam> = 0
    <Phi_h> = 0
    <Phi_hx> = 0
    <Phi_hy> = 0
    <LamType> = 0
    <LamFill> = 1
    <NStrands> = 0
    <WireD> = 0
    <BHPoints> = 200
      0	0
      0.0045422769999999999	3.2767874890000002
      0.0090353559999999996	6.114592773
      0.013222249	8.4602422570000009
      0.017196487	10.462328400000001
      0.020991169	12.199266809999999
      0.024640190999999999	13.72982376
      0.028168996000000002	15.09561901
      0.031597466999999997	16.327217480000002
      0.034941272000000002	17.447599879999999
      0.038212956999999999	18.47443998
      0.041422729999999998	19.421601849999998
      0.044579012000000001	20.300151339999999
      0.047688851999999997	21.119056130000001
      0.050758219	21.885681389999998
      0.053792226999999998	22.60614816
      0.056795300999999999	23.285597330000002
      0.059771310000000001	23.928387470000001
      0.062723663999999998	24.538245379999999
      0.065655396000000005	25.11838217
      0.068569221	25.67158405
      0.071467592999999996	26.200284
      0.074352739000000001	26.70661905
      0.077226698999999996	27.19247648
      0.080091349000000006	27.65953137
      0.082948429000000004	28.109277410000001
      0.085799557999999998	28.54305239
      0.088646256000000007	28.96205934
      0.091489953999999998	29.36738437
      0.094332005999999996	29.760011540000001
      0.097173704999999999	30.140835630000002
      0.100016285	30.510672870000001
      0.102860934	30.870270300000001
      0.105708802	31.220313650000001
      0.108561001	31.561434299999998
      0.11141862	31.894215259999999
      0.114282722	32.21919639
      0.117154355	32.536878999999999
      0.120034552	32.847729870000002
      0.12292433699999999	33.152184810000001
      0.12582473199999999	33.45065185
      0.12873675200000001	33.743513989999997
      0.13166142	34.031131799999997
      0.13459976100000001	34.313845620000002
      0.137552811	34.591977620000002
      0.14052161499999999	34.865833639999998
      0.14350723800000001	35.135704879999999
      0.14651076099999999	35.401869419999997
      0.14953328699999999	35.664593680000003
      0.15257594699999999	35.924133650000002
      0.155639899	36.180736189999998
      0.158726334	36.434640119999997
      0.161836481	36.686077320000003
      0.16497160599999999	36.93527375
      0.16813302299999999	37.182450420000002
      0.17132209400000001	37.427824389999998
      0.17454023399999999	37.671609650000001
      0.17778891699999999	37.914018050000003
      0.18106968000000001	38.155260249999998
      0.18438413100000001	38.395546590000002
      0.18773395400000001	38.635088090000004
      0.191120915	38.87409736
      0.19454686800000001	39.112789630000002
      0.19801376800000001	39.351383830000003
      0.20152367299999999	39.590103640000002
      0.20507876	39.829178749999997
      0.208681327	40.068846100000002
      0.21233381500000001	40.309351300000003
      0.216038808	40.550950149999998
      0.21979905799999999	40.793910310000001
      0.22361749	41.038513199999997
      0.227497227	41.285056060000002
      0.2314416	41.53385428
      0.23545417299999999	41.785244059999997
      0.23953876299999999	42.039585369999998
      0.24369946200000001	42.297265359999997
      0.247940667	42.558702250000003
      0.25226710400000002	42.824349750000003
      0.25668386300000001	43.0947022
      0.26119642799999998	43.370300520000001
      0.26581071499999998	43.651739030000002
      0.27054201700000002	43.94020278
      0.275438138	44.23873004
      0.28051031599999998	44.548036490000001
      0.28576849199999999	44.868763260000001
      0.29122336399999998	45.201605100000002
      0.296886504	45.547319020000003
      0.30277045699999999	45.906731970000003
      0.30888884599999999	46.280749559999997
      0.31525650100000002	46.670366299999998
      0.321889598	47.076677459999999
      0.328805825	47.50089294
      0.33602457000000002	47.944353649999996
      0.34356714500000002	48.408550759999997
      0.351457032	48.895148689999999
      0.35972019	49.406012390000001
      0.36838539799999998	49.943240269999997
      0.37748466600000002	50.509203810000002
      0.38705371900000002	51.106595769999998
      0.39713256899999999	51.738489119999997
      0.40776619800000002	52.408409570000003
      0.41900536300000002	53.120425429999997
      0.43090757000000002	53.879259759999997
      0.44353822799999998	54.690431349999997
      0.45697202599999998	55.560433060000001
      0.47129457299999999	56.49695913
      0.486604327	57.509196449999997
      0.503014823	58.60819978
      0.520657166	59.807376320000003
      0.53968265500000001	61.123111049999999
      0.56026517099999995	62.575567960000001
      0.58260257699999995	64.189698669999999
      0.60691558199999995	65.996464399999994
      0.63344113800000001	68.034201780000004
      0.662415215	70.349880479999996
      0.69403682899999997	72.999622560000006
      0.72840307800000004	76.047204840000006
      0.76540934699999996	79.558509650000005
      0.80463064699999998	83.589963030000007
      0.84524547999999999	88.171938179999998
      0.88609953900000005	93.294734669999997
      0.92594964300000004	98.90894376
      0.963771241	104.9435902
      0.99893980100000002	111.3300564
      1.0312218310000001	118.0174305
      1.0606584889999999	124.9760964
      1.0874410889999999	132.19454709999999
      1.1118223309999999	139.6744898
      1.1340651580000001	147.42664859999999
      1.1544176930000001	155.46782519999999
      1.173103241	163.8190534
      1.1903180360000001	172.50453999999999
      1.2062325739999999	181.55112829999999
      1.220994358	190.98810510000001
      1.234730984	200.84723579999999
      1.2475531	211.16296399999999
      1.2595570490000001	221.97273730000001
      1.270827143	233.31744900000001
      1.281437594	245.2419931
      1.291454146	257.79594609999998
      1.3009354369999999	271.03439809999998
      1.309934159	285.01896390000002
      1.318498043	299.81902289999999
      1.326670706	315.51324579999999
      1.3344924010000001	332.19149570000002
      1.3420006879999999	349.95721329999998
      1.3492310569999999	368.93044570000001
      1.356217531	389.25173360000002
      1.362993272	411.08716509999999
      1.3695912379999999	434.63503709999998
      1.3760449050000001	460.1347695
      1.382389146	487.87903890000001
      1.3886613240000001	518.23060969999995
      1.394902732	551.64618570000005
      1.401160583	588.71104339999999
      1.4074908660000001	630.19074279999995
      1.4139626249999999	677.11087850000001
      1.420664664	730.8848299
      1.4277165590000001	793.52783980000004
      1.435287779	868.03580320000003
      1.4436331710000001	959.10175079999999
      1.453164339	1074.5891859999999
      1.464608755	1228.9034079999999
      1.479413587	1451.8548430000001
      1.5007295060000001	1812.597843
      1.531321148	2396.2922779999999
      1.5749716949999999	3340.7297119999998
      1.6351726849999999	4868.8615820000005
      1.6746062129999999	6056.7860730000002
      1.7053540309999999	7126.7301200000002
      1.7307497590000001	8135.9466300000004
      1.752580204	9119.3875740000003
      1.771845345	10098.25848
      1.789165838	11087.22133
      1.804957089	12097.58993
      1.819514077	13138.977849999999
      1.8330565510000001	14220.25051
      1.845754994	15350.15127
      1.8577465099999999	16537.778849999999
      1.869145125	17793.012470000001
      1.8800488470000001	19126.948680000001
      1.8905448170000001	20552.403480000001
      1.9007133519999999	22084.53774
      1.9106314310000001	23741.68173
      1.920376064	25546.46932
      1.930027954	27527.455720000002
      1.9396760099999999	29721.505959999999
      1.9494234969999999	32177.45292
      1.959397184	34961.935420000002
      1.969762051	38169.180130000001
      1.980746793	41938.394229999998
      1.9926918389999999	46487.096960000003
      2.0061495709999999	52181.595710000001
      2.022124024	59707.652569999998
      2.042772002	70576.241299999994
      2.0725625070000002	88161.987269999998
      2.1158769670000002	116616.322
      2.1803765140000002	162656.4026
      2.2792825830000001	237150.818
      2.3747656959999999	310949.48619999998
  <EndBlock>
  <BeginBlock>
    <BlockName> = "ShaftAir"
    <Mu_x> = 1
    <Mu_y> = 1
    <H_c> = 0
    <H_cAngle> = 0
    <J_re> = 0
    <J_im> = 0
    <Sigma> = 0
    <d_lam> = 0
    <Phi_h> = 0
    <Phi_hx> = 0
    <Phi_hy> = 0
    <LamType> = 0
    <LamFill> = 1
    <NStrands> = 0
    <WireD> = 0
    <BHPoints> = 3
      -100	-7.9577471545947675e-011
      0	0
      100	7.9577471545947675e-011
  <EndBlock>
  <BeginBlock>
    <BlockName> = "Copper"
    <Mu_x> = 1
    <Mu_y> = 1
    <H_c> = 0
    <H_cAngle> = 0
    <J_re> = 0
    <J_im> = 0
    <Sigma> = 58
    <d_lam> = 0
    <Phi_h> = 0
    <Phi_hx> = 0
    <Phi_hy> = 0
    <LamType> = 0
    <LamFill> = 1
    <NStrands> = 0
    <WireD> = 0
    <BHPoints> = 0
  <EndBlock>
  <BeginBlock>
    <BlockName> = "Aluminium"
    <Mu_x> = 1
    <Mu_y> = 1
    <H_c> = 0
    <H_cAngle> = 0
    <J_re> = 0
    <J_im> = 0
    <Sigma> = 29
    <d_lam> = 0
    <Phi_h> = 0
    <Phi_hx> = 0
    <Phi_hy> = 0
    <LamType> = 0
    <LamFill> = 1
    <NStrands> = 0
    <WireD> = 0
    <BHPoints> = 0
  <EndBlock>
  <BeginBlock>
    <BlockName> = "BMN-52UH"
    <Mu_x> = 1.05
    <Mu_y> = 1.05
    <H_c> = 1098926.9880154678
    <H_cAngle> = 0
    <J_re> = 0
    <J_im> = 0
    <Sigma> = 0.66600000000000004
    <d_lam> = 0
    <Phi_h> = 0
    <Phi_hx> = 0
    <Phi_hy> = 0
    <LamType> = 0
    <LamFill> = 1
    <NStrands> = 0
    <WireD> = 0
    <BHPoints> = 0
  <EndBlock>
  <BeginBlock>
    <BlockName> = "DW235"
    <Mu_x> = 1
    <Mu_y> = 1
    <H_c> = 0
    <H_cAngle> = 0
    <J_re> = 0
    <J_im> = 0
    <Sigma> = 0
    <d_lam> = 0
    <Phi_h> = 0
    <Phi_hx> = 0
    <Phi_hy> = 0
    <LamType> = 0
    <LamFill> = 1
    <NStrands> = 0
    <WireD> = 0
    <BHPoints> = 0
  <EndBlock>
  <BeginBlock>
    <BlockName> = "Air"
    <Mu_x> = 1
    <Mu_y> = 1
    <H_c> = 0
    <H_cAngle> = 0
    <J_re> = 0
    <J_im> = 0
    <Sigma> = 0
    <d_lam> = 0
    <Phi_h> = 0
    <Phi_hx> = 0
    <Phi_hy> = 0
    <LamType> = 0
    <LamFill> = 1
    <NStrands> = 0
    <WireD> = 0
    <BHPoints> = 0
  <EndBlock>
  <BeginBlock>
    <BlockName> = "BMN-52UH_1"
    <Mu_x> = 1.05
    <Mu_y> = 1.05
    <H_c> = 1098926.9880154678
    <H_cAngle> = 0
    <J_re> = 0
    <J_im> = 0
    <Sigma> = 0.66600000000000004
    <d_lam> = 0
    <Phi_h> = 0
    <Phi_hx> = 0
    <Phi_hy> = 0
    <LamType> = 0
    <LamFill> = 1
    <NStrands> = 0
    <WireD> = 0
    <BHPoints> = 0
  <EndBlock>
  <BeginBlock>
    <BlockName> = "BMN-52UH_2"
    <Mu_x> = 1.05
    <Mu_y> = 1.05
    <H_c> = 1098926.9880154678
    <H_cAngle> = 0
    <J_re> = 0
    <J_im> = 0
    <Sigma> = 0.66600000000000004
    <d_lam> = 0
    <Phi_h> = 0
    <Phi_hx> = 0
    <Phi_hy> = 0
    <LamType> = 0
    <LamFill> = 1
    <NStrands> = 0
    <WireD> = 0
    <BHPoints> = 0
  <EndBlock>
[CircuitProps]  = 6
  <BeginCircuit>
    <CircuitName> = "fase1"
    <TotalAmps_re> = 0
    <TotalAmps_im> = 0
    <CircuitType> = 1
  <EndCircuit>
  <BeginCircuit>
    <CircuitName> = "fase2"
    <TotalAmps_re> = 0
    <TotalAmps_im> = 0
    <CircuitType> = 1
  <EndCircuit>
  <BeginCircuit>
    <CircuitName> = "fase3"
    <TotalAmps_re> = 0
    <TotalAmps_im> = 0
    <CircuitType> = 1
  <EndCircuit>
  <BeginCircuit>
    <CircuitName> = "fase1n"
    <TotalAmps_re> = 0
    <TotalAmps_im> = 0
    <CircuitType> = 1
  <EndCircuit>
  <BeginCircuit>
    <CircuitName> = "fase2n"
    <TotalAmps_re> = 0
    <TotalAmps_im> = 0
    <CircuitType> = 1
  <EndCircuit>
  <BeginCircuit>
    <CircuitName> = "fase3n"
    <TotalAmps_re> = 0
    <TotalAmps_im> = 0
    <CircuitType> = 1
  <EndCircuit>
[NumPoints] = 177
313.31471547889083	229.85275158874003	0	2
339.79334335027585	217.03559400730296	0	2
356.90246435140318	226.91354962290171	0	2
360.38280438884607	234.10349233303887	0	2
338.58080605788325	382.80990017922318	0	2
316.60587669221917	419.87673185717551	0	2
287.94614592090619	402.88592010368035	0	2
359.97018845333361	236.91785057023824	0	2
313.4803221391366	230.10192378894439	0	2
338.6912945383757	382.05628370824604	0	2
292.2014282241787	375.24035692695224	0	2
357.85500961090798	185.75187037453549	0	2
355.71567974504836	156.41212718984286	0	2
374.96413061203532	195.62982599013424	0	2
382.93097366949024	195.04891752129927	0	2
500.81350140433403	101.81462919032739	0	2
521.92685459241045	64.250366274317457	0	2
492.88251459730799	47.925717237485401	0	2
385.16197143049868	193.28440252053949	0	2
356.01427253046501	156.43096066454942	0	2
500.21609463600373	102.28712325674795	0	2
471.06839573597006	65.433681400757848	0	2
532.97777777777776	0	0	20
247.11000000000001	0	0	2
266.48888888888894	461.57229520813274	0	20
123.55500000000004	214.00353752917263	0	2
0	0	0	2
800	0	0	1
537.95555555555552	0	0	20
400.00000000000011	692.8203230275509	0	1
268.97777777777782	465.88317721808198	0	20
543.57535758967003	40.280548353368374	0	1
544.075769655964	31.688804983586362	0	1
545.20086393685312	48.152882979758964	0	1
650.68555308822431	60.482274876198815	0	1
670.4762141753182	44.170216356990565	0	1
670.86308235829222	39.073325027839758	0	1
671.07054300695324	33.965984399741075	0	1
653.30741369905684	15.466666666666669	0	1
547.10461924477988	15.466666666666676	0	1
544.57618172225796	23.09706161380435	0	1
608.42129431163426	15.466666666666672	0	1
606.10293758245189	55.271314472739931	0	1
536.47627735307435	39.867074014449436	0	1
537.47710148566227	22.683587274885411	0	1
535.22360924044847	103.11343300469341	0	1
536.71807822458277	94.637878224990402	0	1
535.92420222747705	111.12124748937818	0	1
639.26428661245473	135.61329740773166	0	1
660.81484473810337	121.7090907107883	0	1
661.79081002420378	116.69157539217719	0	1
662.5897939551221	111.64285348556513	0	1
647.09441227795048	91.206448075682928	0	1
541.6097231265793	78.87705617924307	0	1
538.21254720871684	86.16232344528737	0	1
602.51179677217806	85.995487672224044	0	1
595.5880783822895	125.26184590095207	0	1
528.22053188569498	101.8786015190619	0	1
531.20946985396336	84.927491959655868	0	1
519.63387974372688	164.55188536406271	0	1
522.10219551642842	156.30713651315651	0	1
519.40008505230742	172.58688775341301	0	1
619.19806730783409	208.91038273425133	0	1
642.21708814302337	197.60205840270652	0	1
643.76895227600846	192.73177238185264	0	1
645.14865460216242	187.80994449951305	0	1
632.13056901082177	165.71281873766753	0	1
528.79048462584421	141.22076881931406	0	1
524.57051128912974	148.06238766225033	0	1
588.45436078065666	155.36136723088794	0	1
577.01891214375769	193.55842574803196	0	1
512.82150987837224	162.51239570922829	0	1
517.75814142377521	146.0228980074159	0	1
497.01699344701876	223.76505575999079	0	1
500.42577627181765	215.86260892235615	0	1
495.85197274928169	231.71858643060779	0	1
590.75825636718184	279.38231351668549	0	1
614.9344471438751	270.82279723787514	0	1
617.04122382354421	266.16560277831337	0	1
618.98298643782971	261.43722819903843	0	1
608.61824420762684	237.97820780389543	0	1
508.82026195210011	201.65471282305708	0	1
503.83455909661654	207.96016208472147	0	1
566.43908904355044	222.62625081767607	0	1
550.64655498512741	259.23745993323013	0	1
490.48745668698126	220.94848853482347	0	1
497.30502233657904	205.14359485955416	0	1
467.67880493858303	279.95218764211245	0	1
471.98195687548593	272.49890985470813	0	1
465.59831314089087	287.71668873582973	0	1
554.3294534454327	346.07607778466331	0	1
579.33587265724088	340.38112233254617	0	1
581.96907134314279	335.99999999999994	0	1
584.44663523726422	331.52902187852402	0	1
576.87540172631418	307.02534985735633	0	1
481.96911810841397	259.36162277127869	0	1
476.28510881238884	265.04563206730381	0	1
536.76370034425975	286.88049627390097	0	1
516.82764779561512	321.41075219051652	0	1
461.520402067227	276.39663208655691	0	1
470.12670594103281	261.49007651174827	0	1
432.01606288880657	332.35344643984126	0	1
437.15539118985475	325.45013049876394	0	1
429.04823507367314	339.82391639924276	0	1
510.40429560907899	408.08975678853835	0	1
535.90277433427161	405.33637666599992	0	1
539.02678553138946	401.29057362427227	0	1
542.00664590389954	397.13745426979739	0	1
537.33130905710902	371.92050075103674	0	1
448.6001687525673	313.56111170220316	0	1
442.29471949090282	318.54681455768667	0	1
499.82950340729161	347.25517515689	0	1
476.01953327916891	379.23751539939229	0	1
426.31207574032629	328.1069853432881	0	1
436.59073234242254	314.30035346113351	0	1
390.51104470505339	380.26019502145294	0	1
396.4170487714099	374.00019643227853	0	1
386.69601565241749	387.33560855580873	0	1
459.57679526495696	464.58472190325011	0	1
485.22251032100502	464.81015185306853	0	1
488.79508713708873	461.15438064778891	0	1
492.2369464883518	457.37528387497491	0	1
490.52073221610868	431.78606489568529	0	1
409.16467168070278	363.52022450638975	0	1
402.32305283776645	367.74019784310406	0	1
456.13596988619855	402.93382350653928	0	1
428.77407117896053	431.93574178833791	0	1
385.33860992053394	375.38025448549752	0	1
397.150618053247	362.86025730714869	0	1
343.72503455706891	423.02457679563668	0	1
350.31784581539119	417.49255130035692	0	1
339.11439599024652	429.60925107465238	0	1
402.534307161463	514.7969756418247	0	1
427.98044424704455	517.99816711065012	0	1
431.95327370935439	514.78186577595329	0	1
435.81058679609896	511.42789738567296	0	1
437.07670395229729	485.81246323465632	0	1
364.19592433975782	408.56334988721488	0	1
356.91065707371342	411.96052580507722	0	1
406.27397986630092	453.16348311974411	0	1
375.73017532106655	478.79277824840119	0	1
339.15410044374238	417.57714964456841	0	1
352.33972296038695	406.51309865400901	0	1
292.290732971458	460.06827686050417	0	1
299.48119495933872	455.33903561384227	0	1
286.9468358675893	466.07316546045871	0	1
340.04823309472783	558.0474834107597	0	1
364.95067685819834	564.18114577556867	0	1
369.27003326358164	561.44780926949318	0	1
373.49063654346787	558.56432593054637	0	1
377.72196306557362	533.26908141183083	0	1
314.30205189435713	448.0813568446585	0	1
306.67165694721939	450.60979436718037	0	1
350.91783122517722	497.26488401840732	0	1
317.60517340101649	519.17496374395046	0	1
288.38311357184341	454.12703020156772	0	1
302.7640375476048	444.66854770824386	0	1
794.59068619355446	92.874331300184181	0	1
534.31809253815459	62.452828114301632	0	1
778.43589646385908	184.49269659395213	0	1
523.45489393325272	124.06108886517758	0	1
751.75409662872676	273.61611466053495	0	1
505.51286586633933	183.99163621395084	0	1
714.90611225872976	359.03934416036975	0	1
480.73464348775917	241.43401231761749	0	1
668.39024913034916	439.60718245664469	0	1
449.45530974854142	295.61140758084593	0	1
612.83555449518246	514.23008774923142	0	1
412.09786397831601	345.79116567314981	0	1
548.99331029498694	581.89891325843894	0	1
369.16750154502898	391.29469144889691	0	1
477.72687336222901	641.69855420403496	0	1
321.24478195424552	431.50662778253547	0	1
536.2962962962963	0	0	20
268.14814814814821	464.4462165480989	0	20
534.63703703703698	0	0	20
267.31851851851854	463.00925587811582	0	20
[NumSegments] = 151
2	1	11.851851851851851	0	0	2
4	9	11.851851851851851	0	0	2
0	6	11.851851851851851	0	0	2
7	3	11.851851851851851	0	0	2
7	8	11.851851851851851	0	0	2
9	7	11.851851851851851	0	0	2
10	9	11.851851851851851	0	0	2
8	10	11.851851851851851	0	0	2
13	11	11.851851851851851	0	0	2
15	20	11.851851851851851	0	0	2
12	17	11.851851851851851	0	0	2
18	14	11.851851851851851	0	0	2
18	19	11.851851851851851	0	0	2
20	18	11.851851851851851	0	0	2
21	20	11.851851851851851	0	0	2
19	21	11.851851851851851	0	0	2
22	23	-1	4	0	2
25	24	-1	4	0	2
23	26	-1	2	0	2
26	25	-1	2	0	2
27	28	-1	10	0	1
30	29	-1	10	0	1
31	32	11.851851851851851	0	0	1
33	31	11.851851851851851	0	0	1
34	42	11.851851851851851	0	0	1
36	35	11.851851851851851	0	0	1
37	36	11.851851851851851	0	0	1
39	41	11.851851851851851	0	0	1
40	39	11.851851851851851	0	0	1
32	40	11.851851851851851	0	0	1
41	38	11.851851851851851	0	0	1
42	33	11.851851851851851	0	0	1
41	42	11.851851851851851	0	0	1
31	43	11.851851851851851	0	0	1
44	40	11.851851851851851	0	0	1
45	46	11.851851851851851	0	0	1
47	45	11.851851851851851	0	0	1
48	56	11.851851851851851	0	0	1
50	49	11.851851851851851	0	0	1
51	50	11.851851851851851	0	0	1
53	55	11.851851851851851	0	0	1
54	53	11.851851851851851	0	0	1
46	54	11.851851851851851	0	0	1
55	52	11.851851851851851	0	0	1
56	47	11.851851851851851	0	0	1
55	56	11.851851851851851	0	0	1
45	57	11.851851851851851	0	0	1
58	54	11.851851851851851	0	0	1
59	60	11.851851851851851	0	0	1
61	59	11.851851851851851	0	0	1
62	70	11.851851851851851	0	0	1
64	63	11.851851851851851	0	0	1
65	64	11.851851851851851	0	0	1
67	69	11.851851851851851	0	0	1
68	67	11.851851851851851	0	0	1
60	68	11.851851851851851	0	0	1
69	66	11.851851851851851	0	0	1
70	61	11.851851851851851	0	0	1
69	70	11.851851851851851	0	0	1
59	71	11.851851851851851	0	0	1
72	68	11.851851851851851	0	0	1
73	74	11.851851851851851	0	0	1
75	73	11.851851851851851	0	0	1
76	84	11.851851851851851	0	0	1
78	77	11.851851851851851	0	0	1
79	78	11.851851851851851	0	0	1
81	83	11.851851851851851	0	0	1
82	81	11.851851851851851	0	0	1
74	82	11.851851851851851	0	0	1
83	80	11.851851851851851	0	0	1
84	75	11.851851851851851	0	0	1
83	84	11.851851851851851	0	0	1
73	85	11.851851851851851	0	0	1
86	82	11.851851851851851	0	0	1
87	88	11.851851851851851	0	0	1
89	87	11.851851851851851	0	0	1
90	98	11.851851851851851	0	0	1
92	91	11.851851851851851	0	0	1
93	92	11.851851851851851	0	0	1
95	97	11.851851851851851	0	0	1
96	95	11.851851851851851	0	0	1
88	96	11.851851851851851	0	0	1
97	94	11.851851851851851	0	0	1
98	89	11.851851851851851	0	0	1
97	98	11.851851851851851	0	0	1
87	99	11.851851851851851	0	0	1
100	96	11.851851851851851	0	0	1
101	102	11.851851851851851	0	0	1
103	101	11.851851851851851	0	0	1
104	112	11.851851851851851	0	0	1
106	105	11.851851851851851	0	0	1
107	106	11.851851851851851	0	0	1
109	111	11.851851851851851	0	0	1
110	109	11.851851851851851	0	0	1
102	110	11.851851851851851	0	0	1
111	108	11.851851851851851	0	0	1
112	103	11.851851851851851	0	0	1
111	112	11.851851851851851	0	0	1
101	113	11.851851851851851	0	0	1
114	110	11.851851851851851	0	0	1
115	116	11.851851851851851	0	0	1
117	115	11.851851851851851	0	0	1
118	126	11.851851851851851	0	0	1
120	119	11.851851851851851	0	0	1
121	120	11.851851851851851	0	0	1
123	125	11.851851851851851	0	0	1
124	123	11.851851851851851	0	0	1
116	124	11.851851851851851	0	0	1
125	122	11.851851851851851	0	0	1
126	117	11.851851851851851	0	0	1
125	126	11.851851851851851	0	0	1
115	127	11.851851851851851	0	0	1
128	124	11.851851851851851	0	0	1
129	130	11.851851851851851	0	0	1
131	129	11.851851851851851	0	0	1
132	140	11.851851851851851	0	0	1
134	133	11.851851851851851	0	0	1
135	134	11.851851851851851	0	0	1
137	139	11.851851851851851	0	0	1
138	137	11.851851851851851	0	0	1
130	138	11.851851851851851	0	0	1
139	136	11.851851851851851	0	0	1
140	131	11.851851851851851	0	0	1
139	140	11.851851851851851	0	0	1
129	141	11.851851851851851	0	0	1
142	138	11.851851851851851	0	0	1
143	144	11.851851851851851	0	0	1
145	143	11.851851851851851	0	0	1
146	154	11.851851851851851	0	0	1
148	147	11.851851851851851	0	0	1
149	148	11.851851851851851	0	0	1
151	153	11.851851851851851	0	0	1
152	151	11.851851851851851	0	0	1
144	152	11.851851851851851	0	0	1
153	150	11.851851851851851	0	0	1
154	145	11.851851851851851	0	0	1
153	154	11.851851851851851	0	0	1
143	155	11.851851851851851	0	0	1
156	152	11.851851851851851	0	0	1
157	158	11.851851851851851	0	0	1
159	160	11.851851851851851	0	0	1
161	162	11.851851851851851	0	0	1
163	164	11.851851851851851	0	0	1
165	166	11.851851851851851	0	0	1
167	168	11.851851851851851	0	0	1
169	170	11.851851851851851	0	0	1
171	172	11.851851851851851	0	0	1
173	28	1.1851851851851851	7	0	20
174	30	1.1851851851851851	7	0	20
175	22	1.1851851851851851	5	0	20
176	24	1.1851851851851851	5	0	20
[NumArcSegments] = 66
0	1	111.65922954604891	9.5492965855137495	0	0	2	1
2	3	68.340770453951066	10	0	0	2	1
4	5	44.64129875102951	2.9924973456729815	0	0	2	1
5	6	135.35870124897031	9.4271419773277998	0	0	2	1
11	12	111.65922954604883	9.5492965855137122	0	0	2	1
14	13	68.340770453950796	10	0	0	2	1
16	15	44.641298751029517	2.9924973456729158	0	0	2	1
17	16	135.35870124897008	9.4271419773275262	0	0	2	1
22	24	59.999999999999993	0.31852223434001731	0	0	2	1
23	25	59.999999999999993	0.6870028433950669	0	0	2	1
27	157	6.6666666666666661	10	1	0	1	1
28	44	2.4166666666666665	0.3155749036851857	0	0	1	1
35	34	92.326081086864008	9.5492965855124563	0	0	1	1
38	37	92.326081086864093	9.5492965855124776	0	0	1	1
43	158	2.4166666666666647	0.3155749036851857	0	0	1	1
44	43	1.8333333333333321	0.3155749036851857	0	0	1	1
49	48	92.32608108686388	9.549296585512451	0	0	1	1
52	51	92.326081086864207	9.5492965855124812	0	0	1	1
57	160	2.4166666666666643	0.3155749036851857	0	0	1	1
58	57	1.8333333333333319	0.3155749036851857	0	0	1	1
63	62	92.326081086863894	9.5492965855124421	0	0	1	1
66	65	92.326081086864065	9.5492965855124847	0	0	1	1
71	162	2.4166666666666639	0.3155749036851857	0	0	1	1
72	71	1.8333333333333319	0.3155749036851857	0	0	1	1
77	76	92.32608108686415	9.5492965855124652	0	0	1	1
80	79	92.326081086863852	9.5492965855124705	0	0	1	1
85	164	2.4166666666666643	0.3155749036851857	0	0	1	1
86	85	1.8333333333333353	0.3155749036851857	0	0	1	1
91	90	92.32608108686405	9.5492965855124474	0	0	1	1
94	93	92.326081086864079	9.5492965855124847	0	0	1	1
99	166	2.416666666666655	0.3155749036851857	0	0	1	1
100	99	1.8333333333333353	0.3155749036851857	0	0	1	1
105	104	92.32608108686432	9.5492965855124758	0	0	1	1
108	107	92.326081086864264	9.5492965855124794	0	0	1	1
113	168	2.416666666666655	0.3155749036851857	0	0	1	1
114	113	1.833333333333335	0.3155749036851857	0	0	1	1
119	118	92.326081086863738	9.5492965855124581	0	0	1	1
122	121	92.32608108686415	9.5492965855124776	0	0	1	1
127	170	2.4166666666666643	0.3155749036851857	0	0	1	1
128	127	1.8333333333333284	0.3155749036851857	0	0	1	1
133	132	92.326081086863837	9.5492965855124154	0	0	1	1
136	135	92.32608108686405	9.5492965855124581	0	0	1	1
141	172	2.4166666666666545	0.3155749036851857	0	0	1	1
142	141	1.8333333333333319	0.3155749036851857	0	0	1	1
147	146	92.326081086863923	9.5492965855124368	0	0	1	1
150	149	92.32608108686378	9.5492965855124758	0	0	1	1
155	30	2.4166666666666643	0.3155749036851857	0	0	1	1
156	155	1.8333333333333319	0.3155749036851857	0	0	1	1
157	159	6.6666666666666679	10	1	0	1	1
158	58	2.4166666666666656	0.3155749036851857	0	0	1	1
159	161	6.6666666666666625	10	1	0	1	1
160	72	2.416666666666667	0.3155749036851857	0	0	1	1
161	163	6.6666666666666714	10	1	0	1	1
162	86	2.4166666666666683	0.3155749036851857	0	0	1	1
163	165	6.666666666666651	10	1	0	1	1
164	100	2.4166666666666679	0.3155749036851857	0	0	1	1
165	167	6.666666666666675	10	1	0	1	1