[Format]      =  4.0
[Frequency]   =  0
[Precision]   =  1e-008
[MinAngle]    =  15
[DoSmartMesh] =  1
[Depth]       =  300
[LengthUnits] =  millimeters
[ProblemType] =  planar
[Coordinates] =  cartesian
[ACSolver]    =  0
[PrevType]    =  0
[PrevSoln]    =  ""
[Comment]     =  "Add comments here."
[PointProps]   = 0
[BdryProps]   = 11
  <BeginBdry>
    <BdryName> = "A=0"
    <BdryType> = 0
    <A_0> = 0
    <A_1> = 0
    <A_2> = 0
    <Phi> = 0
    <c0> = 0
    <c0i> = 0
    <c1> = 0
    <c1i> = 0
    <Mu_ssd> = 0
    <Sigma_ssd> = 0
    <innerangle> = 0
    <outerangle> = 0
  <EndBdry>
  <BeginBdry>
    <BdryName> = "APr1"
    <BdryType> = 5
    <A_0> = 0
    <A_1> = 0
    <A_2> = 0
    <Phi> = 0
    <c0> = 0
    <c0i> = 0
    <c1> = 0
    <c1i> = 0
    <Mu_ssd> = 0
    <Sigma_ssd> = 0
    <innerangle> = 0
    <outerangle> = 0
  <EndBdry>
  <BeginBdry>
    <BdryName> = "APr2"
    <BdryType> = 5
    <A_0> = 0
    <A_1> = 0
    <A_2> = 0
    <Phi> = 0
    <c0> = 0
    <c0i> = 0
    <c1> = 0
    <c1i> = 0
    <Mu_ssd> = 0
    <Sigma_ssd> = 0
    <innerangle> = 0
    <outerangle> = 0
  <EndBdry>
  <BeginBdry>
    <BdryName> = "APr3"
    <BdryType> = 5
    <A_0> = 0
    <A_1> = 0
    <A_2> = 0
    <Phi> = 0
    <c0> = 0
    <c0i> = 0
    <c1> = 0
    <c1i> = 0
    <Mu_ssd> = 0
    <Sigma_ssd> = 0
    <innerangle> = 0
    <outerangle> = 0
  <EndBdry>
  <BeginBdry>
    <BdryName> = "APg1"
    <BdryType> = 5
    <A_0> = 0
    <A_1> = 0
    <A_2> = 0
    <Phi> = 0
    <c0> = 0
    <c0i> = 0
    <c1> = 0
    <c1i> = 0
    <Mu_ssd> = 0
    <Sigma_ssd> = 0
    <innerangle> = 0
    <outerangle> = 0
  <EndBdry>
  <BeginBdry>
    <BdryName> = "APg2"
    <BdryType> = 5
    <A_0> = 0
    <A_1> = 0
    <A_2> = 0
    <Phi> = 0
    <c0> = 0
    <c0i> = 0
    <c1> = 0
    <c1i> = 0
    <Mu_ssd> = 0
    <Sigma_ssd> = 0
    <innerangle> = 0
    <outerangle> = 0
  <EndBdry>
  <BeginBdry>
    <BdryName> = "APg3"
    <BdryType> = 5
    <A_0> = 0
    <A_1> = 0
    <A_2> = 0
    <Phi> = 0
    <c0> = 0
    <c0i> = 0
    <c1> = 0
    <c1i> = 0
    <Mu_ssd> = 0
    <Sigma_ssd> = 0
    <innerangle> = 0
    <outerangle> = 0
  <EndBdry>
  <BeginBdry>
    <BdryName> = "APs1"
    <BdryType> = 5
    <A_0> = 0
    <A_1> = 0
    <A_2> = 0
    <Phi> = 0
    <c0> = 0
    <c0i> = 0
    <c1> = 0
    <c1i> = 0
    <Mu_ssd> = 0
    <Sigma_ssd> = 0
    <innerangle> = 0
    <outerangle> = 0
  <EndBdry>
  <BeginBdry>
    <BdryName> = "APs2"
    <BdryType> = 5
    <A_0> = 0
    <A_1> = 0
    <A_2> = 0
    <Phi> = 0
    <c0> = 0
    <c0i> = 0
    <c1> = 0
    <c1i> = 0
    <Mu_ssd> = 0
    <Sigma_ssd> = 0
    <innerangle> = 0
    <outerangle> = 0
  <EndBdry>
  <BeginBdry>
    <BdryName> = "APs3"
    <BdryType> = 5
    <A_0> = 0
    <A_1> = 0
    <A_2> = 0
    <Phi> = 0
    <c0> = 0
    <c0i> = 0
    <c1> = 0
    <c1i> = 0
    <Mu_ssd> = 0
    <Sigma_ssd> = 0
    <innerangle> = 0
    <outerangle> = 0
  <EndBdry>
  <BeginBdry>
    <BdryName> = "AGap"
    <BdryType> = 7
    <A_0> = 0
    <A_1> = 0
    <A_2> = 0
    <Phi> = 0
    <c0> = 0
    <c0i> = 0
    <c1> = 0
    <c1i> = 0
    <Mu_ssd> = 0
    <Sigma_ssd> = 0
    <innerangle> = 0
    <outerangle> = 0
  <EndBdry>
[BlockProps]  = 7
  <BeginBlock>
    <BlockName> = "M270-35A"
    <Mu_x> = 1
    <Mu_y> = 1
    <H_c> = 0
    <H_cAngle> = 0
    <J_re> = 0
    <J_im> = 0
    <Sigma> = 0
    <d_lam> = 0
    <Phi_h> = 0
    <Phi_hx> = 0
    <Phi_hy> = 0
    <LamType> = 0
    <LamFill> = 1
    <NStrands> = 0
    <WireD> = 0
    <BHPoints> = 200
      0	0
      0.0045422769999999999	3.2767874890000002
      0.0090353559999999996	6.114592773
      0.013222249	8.4602422570000009
      0.017196487	10.462328400000001
      0.020991169	12.199266809999999
      0.024640190999999999	13.72982376
      0.028168996000000002	15.09561901
      0.031597466999999997	16.327217480000002
      0.034941272000000002	17.447599879999999
      0.038212956999999999	18.47443998
      0.041422729999999998	19.421601849999998
      0.044579012000000001	20.300151339999999
      0.047688851999999997	21.119056130000001
      0.050758219	21.885681389999998
      0.053792226999999998	22.60614816
      0.056795300999999999	23.285597330000002
      0.059771310000000001	23.928387470000001
      0.062723663999999998	24.538245379999999
      0.065655396000000005	25.11838217
      0.068569221	25.67158405
      0.071467592999999996	26.200284
      0.074352739000000001	26.70661905
      0.077226698999999996	27.19247648
      0.080091349000000006	27.65953137
      0.082948429000000004	28.109277410000001
      0.085799557999999998	28.54305239
      0.088646256000000007	28.96205934
      0.091489953999999998	29.36738437
      0.094332005999999996	29.760011540000001
      0.097173704999999999	30.140835630000002
      0.100016285	30.510672870000001
      0.102860934	30.870270300000001
      0.105708802	31.220313650000001
      0.108561001	31.561434299999998
      0.11141862	31.894215259999999
      0.114282722	32.21919639
      0.117154355	32.536878999999999
      0.120034552	32.847729870000002
      0.12292433699999999	33.152184810000001
      0.12582473199999999	33.45065185
      0.12873675200000001	33.743513989999997
      0.13166142	34.031131799999997
      0.13459976100000001	34.313845620000002
      0.137552811	34.591977620000002
      0.14052161499999999	34.865833639999998
      0.14350723800000001	35.135704879999999
      0.14651076099999999	35.401869419999997
      0.14953328699999999	35.664593680000003
      0.15257594699999999	35.924133650000002
      0.155639899	36.180736189999998
      0.158726334	36.434640119999997
      0.161836481	36.686077320000003
      0.16497160599999999	36.93527375
      0.16813302299999999	37.182450420000002
      0.17132209400000001	37.427824389999998
      0.17454023399999999	37.671609650000001
      0.17778891699999999	37.914018050000003
      0.18106968000000001	38.155260249999998
      0.18438413100000001	38.395546590000002
      0.18773395400000001	38.635088090000004
      0.191120915	38.87409736
      0.19454686800000001	39.112789630000002
      0.19801376800000001	39.351383830000003
      0.20152367299999999	39.590103640000002
      0.20507876	39.829178749999997
      0.208681327	40.068846100000002
      0.21233381500000001	40.309351300000003
      0.216038808	40.550950149999998
      0.21979905799999999	40.793910310000001
      0.22361749	41.038513199999997
      0.227497227	41.285056060000002
      0.2314416	41.53385428
      0.23545417299999999	41.785244059999997
      0.23953876299999999	42.039585369999998
      0.24369946200000001	42.297265359999997
      0.247940667	42.558702250000003
      0.25226710400000002	42.824349750000003
      0.25668386300000001	43.0947022
      0.26119642799999998	43.370300520000001
      0.26581071499999998	43.651739030000002
      0.27054201700000002	43.94020278
      0.275438138	44.23873004
      0.28051031599999998	44.548036490000001
      0.28576849199999999	44.868763260000001
      0.29122336399999998	45.201605100000002
      0.296886504	45.547319020000003
      0.30277045699999999	45.906731970000003
      0.30888884599999999	46.280749559999997
      0.31525650100000002	46.670366299999998
      0.321889598	47.076677459999999
      0.328805825	47.50089294
      0.33602457000000002	47.944353649999996
      0.34356714500000002	48.408550759999997
      0.351457032	48.895148689999999
      0.35972019	49.406012390000001
      0.36838539799999998	49.943240269999997
      0.37748466600000002	50.509203810000002
      0.38705371900000002	51.106595769999998
      0.39713256899999999	51.738489119999997
      0.40776619800000002	52.408409570000003
      0.41900536300000002	53.120425429999997
      0.43090757000000002	53.879259759999997
      0.44353822799999998	54.690431349999997
      0.45697202599999998	55.560433060000001
      0.47129457299999999	56.49695913
      0.486604327	57.509196449999997
      0.503014823	58.60819978
      0.520657166	59.807376320000003
      0.53968265500000001	61.123111049999999
      0.56026517099999995	62.575567960000001
      0.58260257699999995	64.189698669999999
      0.60691558199999995	65.996464399999994
      0.63344113800000001	68.034201780000004
      0.662415215	70.349880479999996
      0.69403682899999997	72.999622560000006
      0.72840307800000004	76.047204840000006
      0.76540934699999996	79.558509650000005
      0.80463064699999998	83.589963030000007
      0.84524547999999999	88.171938179999998
      0.88609953900000005	93.294734669999997
      0.92594964300000004	98.90894376
      0.963771241	104.9435902
      0.99893980100000002	111.3300564
      1.0312218310000001	118.0174305
      1.0606584889999999	124.9760964
      1.0874410889999999	132.19454709999999
      1.1118223309999999	139.6744898
      1.1340651580000001	147.42664859999999
      1.1544176930000001	155.46782519999999
      1.173103241	163.8190534
      1.1903180360000001	172.50453999999999
      1.2062325739999999	181.55112829999999
      1.220994358	190.98810510000001
      1.234730984	200.84723579999999
      1.2475531	211.16296399999999
      1.2595570490000001	221.97273730000001
      1.270827143	233.31744900000001
      1.281437594	245.2419931
      1.291454146	257.79594609999998
      1.3009354369999999	271.03439809999998
      1.309934159	285.01896390000002
      1.318498043	299.81902289999999
      1.326670706	315.51324579999999
      1.3344924010000001	332.19149570000002
      1.3420006879999999	349.95721329999998
      1.3492310569999999	368.93044570000001
      1.356217531	389.25173360000002
      1.362993272	411.08716509999999
      1.3695912379999999	434.63503709999998
      1.3760449050000001	460.1347695
      1.382389146	487.87903890000001
      1.3886613240000001	518.23060969999995
      1.394902732	551.64618570000005
      1.401160583	588.71104339999999
      1.4074908660000001	630.19074279999995
      1.4139626249999999	677.11087850000001
      1.420664664	730.8848299
      1.4277165590000001	793.52783980000004
      1.435287779	868.03580320000003
      1.4436331710000001	959.10175079999999
      1.453164339	1074.5891859999999
      1.464608755	1228.9034079999999
      1.479413587	1451.8548430000001
      1.5007295060000001	1812.597843
      1.531321148	2396.2922779999999
      1.5749716949999999	3340.7297119999998
      1.6351726849999999	4868.8615820000005
      1.6746062129999999	6056.7860730000002
      1.7053540309999999	7126.7301200000002
      1.7307497590000001	8135.9466300000004
      1.752580204	9119.3875740000003
      1.771845345	10098.25848
      1.789165838	11087.22133
      1.804957089	12097.58993
      1.819514077	13138.977849999999
      1.8330565510000001	14220.25051
      1.845754994	15350.15127
      1.8577465099999999	16537.778849999999
      1.869145125	17793.012470000001
      1.8800488470000001	19126.948680000001
      1.8905448170000001	20552.403480000001
      1.9007133519999999	22084.53774
      1.9106314310000001	23741.68173
      1.920376064	25546.46932
      1.930027954	27527.455720000002
      1.9396760099999999	29721.505959999999
      1.9494234969999999	32177.45292
      1.959397184	34961.935420000002
      1.969762051	38169.180130000001
      1.980746793	41938.394229999998
      1.9926918389999999	46487.096960000003
      2.0061495709999999	52181.595710000001
      2.022124024	59707.652569999998
      2.042772002	70576.241299999994
      2.0725625070000002	88161.987269999998
      2.1158769670000002	116616.322
      2.1803765140000002	162656.4026
      2.2792825830000001	237150.818
      2.3747656959999999	310949.48619999998
  <EndBlock>
  <BeginBlock>
    <BlockName> = "ShaftAir"
    <Mu_x> = 1
    <Mu_y> = 1
    <H_c> = 0
    <H_cAngle> = 0
    <J_re> = 0
    <J_im> = 0
    <Sigma> = 0
    <d_lam> = 0
    <Phi_h> = 0
    <Phi_hx> = 0
    <Phi_hy> = 0
    <LamType> = 0
    <LamFill> = 1
    <NStrands> = 0
    <WireD> = 0
    <BHPoints> = 3
      -100	-7.9577471545947675e-011
      0	0
      100	7.9577471545947675e-011
  <EndBlock>
  <BeginBlock>
    <BlockName> = "Copper"
    <Mu_x> = 1
    <Mu_y> = 1
    <H_c> = 0
    <H_cAngle> = 0
    <J_re> = 0
    <J_im> = 0
    <Sigma> = 58
    <d_lam> = 0
    <Phi_h> = 0
    <Phi_hx> = 0
    <Phi_hy> = 0
    <LamType> = 0
    <LamFill> = 1
    <NStrands> = 0
    <WireD> = 0
    <BHPoints> = 0
  <EndBlock>
  <BeginBlock>
    <BlockName> = "Aluminium"
    <Mu_x> = 1
    <Mu_y> = 1
    <H_c> = 0
    <H_cAngle> = 0
    <J_re> = 0
    <J_im> = 0
    <Sigma> = 29
    <d_lam> = 0
    <Phi_h> = 0
    <Phi_hx> = 0
    <Phi_hy> = 0
    <LamType> = 0
    <LamFill> = 1
    <NStrands> = 0
    <WireD> = 0
    <BHPoints> = 0
  <EndBlock>
  <BeginBlock>
    <BlockName> = "Air"
    <Mu_x> = 1
    <Mu_y> = 1
    <H_c> = 0
    <H_cAngle> = 0
    <J_re> = 0
    <J_im> = 0
    <Sigma> = 0
    <d_lam> = 0
    <Phi_h> = 0
    <Phi_hx> = 0
    <Phi_hy> = 0
    <LamType> = 0
    <LamFill> = 1
    <NStrands> = 0
    <WireD> = 0
    <BHPoints> = 0
  <EndBlock>
  <BeginBlock>
    <BlockName> = "DW235"
    <Mu_x> = 1
    <Mu_y> = 1
    <H_c> = 0
    <H_cAngle> = 0
    <J_re> = 0
    <J_im> = 0
    <Sigma> = 0
    <d_lam> = 0
    <Phi_h> = 0
    <Phi_hx> = 0
    <Phi_hy> = 0
    <LamType> = 0
    <LamFill> = 1
    <NStrands> = 0
    <WireD> = 0
    <BHPoints> = 0
  <EndBlock>
  <BeginBlock>
    <BlockName> = "Air"
    <Mu_x> = 1
    <Mu_y> = 1
    <H_c> = 0
    <H_cAngle> = 0
    <J_re> = 0
    <J_im> = 0
    <Sigma> = 0
    <d_lam> = 0
    <Phi_h> = 0
    <Phi_hx> = 0
    <Phi_hy> = 0
    <LamType> = 0
    <LamFill> = 1
    <NStrands> = 0
    <WireD> = 0
    <BHPoints> = 0
  <EndBlock>
[CircuitProps]  = 6
  <BeginCircuit>
    <CircuitName> = "fase1"
    <TotalAmps_re> = 0
    <TotalAmps_im> = 0
    <CircuitType> = 1
  <EndCircuit>
  <BeginCircuit>
    <CircuitName> = "fase2"
    <TotalAmps_re> = 0
    <TotalAmps_im> = 0
    <CircuitType> = 1
  <EndCircuit>
  <BeginCircuit>
    <CircuitName> = "fase3"
    <TotalAmps_re> = 0
    <TotalAmps_im> = 0
    <CircuitType> = 1
  <EndCircuit>
  <BeginCircuit>
    <CircuitName> = "fase1n"
    <TotalAmps_re> = 0
    <TotalAmps_im> = 0
    <CircuitType> = 1
  <EndCircuit>
  <BeginCircuit>
    <CircuitName> = "fase2n"
    <TotalAmps_re> = 0
    <TotalAmps_im> = 0
    <CircuitType> = 1
  <EndCircuit>
  <BeginCircuit>
    <CircuitName> = "fase3n"
    <TotalAmps_re> = 0
    <TotalAmps_im> = 0
    <CircuitType> = 1
  <EndCircuit>
[NumPoints] = 65
763.1561784790332	23.983149097509269	0	2
757.11471660304483	23.793288509303693	0	2
762.84956875828345	33.715641513403206	0	2
763.81370679896645	33.777038977155009	0	2
769.43448985564328	40.08206419295972	0	2
769.32574380989365	40.179987393164083	0	2
756.6254047622615	39.380405182715208	0	2
763.46278819978306	14.250656681615334	0	2
764.42887891292605	14.251394263024885	0	2
770.43296028498708	8.3102199666564864	0	2
770.32951245586651	8.206715366496681	0	2
757.60402844382804	8.2061718358921762	0	2
773.49999999999989	0	0	20
638.37	0	0	2
771.97367443926794	48.568466855923887	0	20
637.11032262675576	40.083583951927778	0	2
0	0	0	2
850	0	0	1
777.97368421052624	0	0	20
848.32271916403079	53.371941599916369	0	1
776.43853085592082	48.849371811712921	0	20
785.46217459729189	10.262481038120702	0	1
785.48350277337806	8.2258646972959326	0	1
785.70080452085165	11.191883227877822	0	1
838.21423755264379	12.291882840038772	0	1
839.87467369323565	10.686188464618601	0	1
839.89844531013046	8.7957174736280148	0	1
839.91426994401479	6.9051632589837606	0	1
838.28782509032192	5.2650474880286904	0	1
785.76287246843674	5.2650474880286904	0	1
785.50483094946424	6.1892483564711629	0	1
777.90703331764132	10.183360891464622	0	1
777.94968966981367	6.1101282098150822	0	1
785.07498857557368	26.709708969351077	0	1
785.13896374858916	24.673985955764195	0	1
785.29410223274931	27.643904813905394	0	1
837.7729815471356	29.843421542042066	0	1
839.46668065245717	28.27285287277855	0	1
839.53003809311417	26.383294328498931	0	1
839.58545203657013	24.493486149762951	0	1
837.99371188224359	22.81966839225646	0	1
785.48027885045133	21.71966878009551	0	1
785.20293892160475	22.63826294217731	0	1
777.52316123058802	26.472383234094107	0	1
777.6511115766192	22.400937206920339	0	1
784.34344271689508	43.145221139463359	0	1
784.45003682521485	41.111284388509389	0	1
784.54294399719493	44.083800869641983	0	1
836.96425062326489	47.381869933022713	0	1
838.69046978091137	45.847115873241968	0	1
838.79338525466335	43.959298598501334	0	1
838.88836420130383	42.071065387999575	0	1
837.33202693618273	40.364279835730294	0	1
784.85314762179632	38.164763107593615	0	1
784.55663093353439	39.077347637555427	0	1
776.79824178763829	42.749793914516673	0	1
777.0114300042776	38.68192041260874	0	1
849.81358095361873	17.801056900853414	0	1
777.80306172544351	16.292651552938992	0	1
849.25440558402966	35.594305669819676	0	1
777.29126911085655	32.578156610429687	0	1
776.48245614035079	0	0	20
774.95024538370319	48.755736826449912	0	20
774.99122807017534	0	0	20
773.46195991148556	48.662101841186903	0	20
[NumSegments] = 54
0	1	0.75555555555555554	0	0	2
2	0	0.75555555555555554	0	0	2
3	2	0.75555555555555554	0	0	2
6	5	0.75555555555555554	0	0	2
1	6	0.75555555555555554	0	0	2
7	0	0.75555555555555554	0	0	2
8	7	0.75555555555555554	0	0	2
11	10	0.75555555555555554	0	0	2
1	11	0.75555555555555554	0	0	2
12	13	-1	4	0	2
15	14	-1	4	0	2
13	16	-1	2	0	2
16	15	-1	2	0	2
17	18	-1	10	0	1
20	19	-1	10	0	1
21	22	0.75555555555555554	0	0	1
23	21	0.75555555555555554	0	0	1
24	23	0.75555555555555554	0	0	1
26	25	0.75555555555555554	0	0	1
27	26	0.75555555555555554	0	0	1
29	28	0.75555555555555554	0	0	1
30	29	0.75555555555555554	0	0	1
22	30	0.75555555555555554	0	0	1
26	22	0.75555555555555554	0	0	1
21	31	0.75555555555555554	0	0	1
32	30	0.75555555555555554	0	0	1
33	34	0.75555555555555554	0	0	1
35	33	0.75555555555555554	0	0	1
36	35	0.75555555555555554	0	0	1
38	37	0.75555555555555554	0	0	1
39	38	0.75555555555555554	0	0	1
41	40	0.75555555555555554	0	0	1
42	41	0.75555555555555554	0	0	1
34	42	0.75555555555555554	0	0	1
38	34	0.75555555555555554	0	0	1
33	43	0.75555555555555554	0	0	1
44	42	0.75555555555555554	0	0	1
45	46	0.75555555555555554	0	0	1
47	45	0.75555555555555554	0	0	1
48	47	0.75555555555555554	0	0	1
50	49	0.75555555555555554	0	0	1
51	50	0.75555555555555554	0	0	1
53	52	0.75555555555555554	0	0	1
54	53	0.75555555555555554	0	0	1
46	54	0.75555555555555554	0	0	1
50	46	0.75555555555555554	0	0	1
45	55	0.75555555555555554	0	0	1
56	54	0.75555555555555554	0	0	1
57	58	0.75555555555555554	0	0	1
59	60	0.75555555555555554	0	0	1
61	18	0.075555555555555556	7	0	20
62	20	0.075555555555555556	7	0	20
63	12	0.075555555555555556	5	0	20
64	14	0.075555555555555556	5	0	20
[NumArcSegments] = 26
3	4	89.382007142867323	1.8021989777801537	0	0	2	1.8021989777801537
4	5	90.617992857862419	10	0	0	2	10
9	8	89.382007142865945	1.8021989777858913	0	0	2	1.8021989777858913
10	9	90.617992856538962	10	0	0	2	10
12	14	3.6000000000000001	0.013991643348738052	0	0	2	0.013991643348738052
13	15	3.5999999999999996	0.016953390870888173	0	0	2	0.016953390870888173
17	57	1.1999999999999995	0.75555555555555554	1	0	1	0.070999999999999994
18	32	0.44999999999999996	0.013911185365134039	0	0	1	0.013911185365134039
25	24	90.479575540232986	6.6538727062446696	0	0	1	6.6538727062446696
28	27	90.479575540227046	6.6538727062451484	0	0	1	6.6538727062451484
31	58	0.45000000000000007	0.013911185365134039	0	0	1	0.013911185365134039
32	31	0.29999999999999988	0.013911185365134039	0	0	1	0.013911185365134039
37	36	90.479575540232801	6.6538727062449912	0	0	1	6.6538727062449912
40	39	90.479575540229149	6.6538727062451661	0	0	1	6.6538727062451661
43	60	0.44999999999999946	0.013911185365134039	0	0	1	0.013911185365134039
44	43	0.30000000000000016	0.013911185365134039	0	0	1	0.013911185365134039
49	48	90.479575540230158	6.6538727062447052	0	0	1	6.6538727062447052
52	51	90.479575540229305	6.6538727062451679	0	0	1	6.6538727062451679
55	20	0.44999999999999873	0.013911185365134039	0	0	1	0.013911185365134039
56	55	0.29999999999999932	0.013911185365134039	0	0	1	0.013911185365134039
57	59	1.1999999999999988	0.75555555555555554	1	0	1	0.085999999999999993
58	44	0.44999999999999984	0.013911185365134039	0	0	1	0.013911185365134039
59	19	1.2000000000000006	0.75555555555555554	1	0	1	0.067000000000000004
60	56	0.45000000000000034	0.013911185365134039	0	0	1	0.013911185365134039
61	62	3.6000000000000001	0.075555555555555556	11	0	20	0.0082000000000000007
63	64	3.6000000000000001	0.075555555555555556	11	0	20	0.0082000000000000007
[NumHoles] = 0
[NumBlockLabels] = 18
767.52484749752	38.012182419581528	7	0.75555555555555554	0	0	2	1	0
768.39697016970024	10.255251169539971	7	0.75555555555555554	0	0	2	1	0
697.58485977185853	21.922487391004225	1	0.75555555555555554	0	0	22	1	0
319.02750147033606	10.025843136352378	7	0.75555555555555554	0	0	2	1	0
812.68107497905953	9.4560473868706829	3	0.75555555555555554	1	0	1	1	0
812.7008731044491	7.5655347840532627	3	0.75555555555555554	1	0	1	1	0
781.7072650965921	8.1863185832344705	7	0.75555555555555554	0	0	10	1	0
844.92591963540792	8.8483669862184691	1	0.75555555555555554	0	0	12	1	0
812.30480807482354	26.473481822885461	3	0.75555555555555554	3	0	1	-1	0
812.36419376688002	24.583798461377661	3	0.75555555555555554	3	0	1	-1	0
781.36438245445413	24.555364959812447	7	0.75555555555555554	0	0	10	1	0
844.55530720199306	26.541219772453989	1	0.75555555555555554	0	0	12	1	0
811.57223743484099	43.479304114815967	3	0.75555555555555554	2	0	1	1	0
811.6711846450371	41.591278872194763	3	0.75555555555555554	2	0	1	1	0
780.67876756983719	40.913640541756642	7	0.75555555555555554	0	0	10	1	0
843.81424489802555	44.222430702501796	1	0.75555555555555554	0	0	12	1	0
776.84455504074799	24.413323661039286	7	0.075555555555555556	0	0	20	1	0
773.86357056246413	24.319642449753641	7	0.075555555555555556	0	0	20	1	0
