[Format]      =  4.0
[Frequency]   =  0
[Precision]   =  1e-008
[MinAngle]    =  15
[DoSmartMesh] =  1
[Depth]       =  134
[LengthUnits] =  millimeters
[ProblemType] =  planar
[Coordinates] =  cartesian
[ACSolver]    =  0
[PrevType]    =  0
[PrevSoln]    =  ""
[Comment]     =  "Add comments here."
[PointProps]   = 0
[BdryProps]   = 11
  <BeginBdry>
    <BdryName> = "A=0"
    <BdryType> = 0
    <A_0> = 0
    <A_1> = 0
    <A_2> = 0
    <Phi> = 0
    <c0> = 0
    <c0i> = 0
    <c1> = 0
    <c1i> = 0
    <Mu_ssd> = 0
    <Sigma_ssd> = 0
    <innerangle> = 0
    <outerangle> = 0
  <EndBdry>
  <BeginBdry>
    <BdryName> = "APr1"
    <BdryType> = 5
    <A_0> = 0
    <A_1> = 0
    <A_2> = 0
    <Phi> = 0
    <c0> = 0
    <c0i> = 0
    <c1> = 0
    <c1i> = 0
    <Mu_ssd> = 0
    <Sigma_ssd> = 0
    <innerangle> = 0
    <outerangle> = 0
  <EndBdry>
  <BeginBdry>
    <BdryName> = "APr2"
    <BdryType> = 5
    <A_0> = 0
    <A_1> = 0
    <A_2> = 0
    <Phi> = 0
    <c0> = 0
    <c0i> = 0
    <c1> = 0
    <c1i> = 0
    <Mu_ssd> = 0
    <Sigma_ssd> = 0
    <innerangle> = 0
    <outerangle> = 0
  <EndBdry>
  <BeginBdry>
    <BdryName> = "APr3"
    <BdryType> = 5
    <A_0> = 0
    <A_1> = 0
    <A_2> = 0
    <Phi> = 0
    <c0> = 0
    <c0i> = 0
    <c1> = 0
    <c1i> = 0
    <Mu_ssd> = 0
    <Sigma_ssd> = 0
    <innerangle> = 0
    <outerangle> = 0
  <EndBdry>
  <BeginBdry>
    <BdryName> = "APg1"
    <BdryType> = 5
    <A_0> = 0
    <A_1> = 0
    <A_2> = 0
    <Phi> = 0
    <c0> = 0
    <c0i> = 0
    <c1> = 0
    <c1i> = 0
    <Mu_ssd> = 0
    <Sigma_ssd> = 0
    <innerangle> = 0
    <outerangle> = 0
  <EndBdry>
  <BeginBdry>
    <BdryName> = "APg2"
    <BdryType> = 5
    <A_0> = 0
    <A_1> = 0
    <A_2> = 0
    <Phi> = 0
    <c0> = 0
    <c0i> = 0
    <c1> = 0
    <c1i> = 0
    <Mu_ssd> = 0
    <Sigma_ssd> = 0
    <innerangle> = 0
    <outerangle> = 0
  <EndBdry>
  <BeginBdry>
    <BdryName> = "APg3"
    <BdryType> = 5
    <A_0> = 0
    <A_1> = 0
    <A_2> = 0
    <Phi> = 0
    <c0> = 0
    <c0i> = 0
    <c1> = 0
    <c1i> = 0
    <Mu_ssd> = 0
    <Sigma_ssd> = 0
    <innerangle> = 0
    <outerangle> = 0
  <EndBdry>
  <BeginBdry>
    <BdryName> = "APs1"
    <BdryType> = 5
    <A_0> = 0
    <A_1> = 0
    <A_2> = 0
    <Phi> = 0
    <c0> = 0
    <c0i> = 0
    <c1> = 0
    <c1i> = 0
    <Mu_ssd> = 0
    <Sigma_ssd> = 0
    <innerangle> = 0
    <outerangle> = 0
  <EndBdry>
  <BeginBdry>
    <BdryName> = "APs2"
    <BdryType> = 5
    <A_0> = 0
    <A_1> = 0
    <A_2> = 0
    <Phi> = 0
    <c0> = 0
    <c0i> = 0
    <c1> = 0
    <c1i> = 0
    <Mu_ssd> = 0
    <Sigma_ssd> = 0
    <innerangle> = 0
    <outerangle> = 0
  <EndBdry>
  <BeginBdry>
    <BdryName> = "APs3"
    <BdryType> = 5
    <A_0> = 0
    <A_1> = 0
    <A_2> = 0
    <Phi> = 0
    <c0> = 0
    <c0i> = 0
    <c1> = 0
    <c1i> = 0
    <Mu_ssd> = 0
    <Sigma_ssd> = 0
    <innerangle> = 0
    <outerangle> = 0
  <EndBdry>
  <BeginBdry>
    <BdryName> = "AGap"
    <BdryType> = 7
    <A_0> = 0
    <A_1> = 0
    <A_2> = 0
    <Phi> = 0
    <c0> = 0
    <c0i> = 0
    <c1> = 0
    <c1i> = 0
    <Mu_ssd> = 0
    <Sigma_ssd> = 0
    <innerangle> = 2.7999999999999998
    <outerangle> = 0
  <EndBdry>
[BlockProps]  = 9
  <BeginBlock>
    <BlockName> = "M270-35A"
    <Mu_x> = 1
    <Mu_y> = 1
    <H_c> = 0
    <H_cAngle> = 0
    <J_re> = 0
    <J_im> = 0
    <Sigma> = 0
    <d_lam> = 0
    <Phi_h> = 0
    <Phi_hx> = 0
    <Phi_hy> = 0
    <LamType> = 0
    <LamFill> = 1
    <NStrands> = 0
    <WireD> = 0
    <BHPoints> = 200
      0	0
      0.0045422769999999999	3.2767874890000002
      0.0090353559999999996	6.114592773
      0.013222249	8.4602422570000009
      0.017196487	10.462328400000001
      0.020991169	12.199266809999999
      0.024640190999999999	13.72982376
      0.028168996000000002	15.09561901
      0.031597466999999997	16.327217480000002
      0.034941272000000002	17.447599879999999
      0.038212956999999999	18.47443998
      0.041422729999999998	19.421601849999998
      0.044579012000000001	20.300151339999999
      0.047688851999999997	21.119056130000001
      0.050758219	21.885681389999998
      0.053792226999999998	22.60614816
      0.056795300999999999	23.285597330000002
      0.059771310000000001	23.928387470000001
      0.062723663999999998	24.538245379999999
      0.065655396000000005	25.11838217
      0.068569221	25.67158405
      0.071467592999999996	26.200284
      0.074352739000000001	26.70661905
      0.077226698999999996	27.19247648
      0.080091349000000006	27.65953137
      0.082948429000000004	28.109277410000001
      0.085799557999999998	28.54305239
      0.088646256000000007	28.96205934
      0.091489953999999998	29.36738437
      0.094332005999999996	29.760011540000001
      0.097173704999999999	30.140835630000002
      0.100016285	30.510672870000001
      0.102860934	30.870270300000001
      0.105708802	31.220313650000001
      0.108561001	31.561434299999998
      0.11141862	31.894215259999999
      0.114282722	32.21919639
      0.117154355	32.536878999999999
      0.120034552	32.847729870000002
      0.12292433699999999	33.152184810000001
      0.12582473199999999	33.45065185
      0.12873675200000001	33.743513989999997
      0.13166142	34.031131799999997
      0.13459976100000001	34.313845620000002
      0.137552811	34.591977620000002
      0.14052161499999999	34.865833639999998
      0.14350723800000001	35.135704879999999
      0.14651076099999999	35.401869419999997
      0.14953328699999999	35.664593680000003
      0.15257594699999999	35.924133650000002
      0.155639899	36.180736189999998
      0.158726334	36.434640119999997
      0.161836481	36.686077320000003
      0.16497160599999999	36.93527375
      0.16813302299999999	37.182450420000002
      0.17132209400000001	37.427824389999998
      0.17454023399999999	37.671609650000001
      0.17778891699999999	37.914018050000003
      0.18106968000000001	38.155260249999998
      0.18438413100000001	38.395546590000002
      0.18773395400000001	38.635088090000004
      0.191120915	38.87409736
      0.19454686800000001	39.112789630000002
      0.19801376800000001	39.351383830000003
      0.20152367299999999	39.590103640000002
      0.20507876	39.829178749999997
      0.208681327	40.068846100000002
      0.21233381500000001	40.309351300000003
      0.216038808	40.550950149999998
      0.21979905799999999	40.793910310000001
      0.22361749	41.038513199999997
      0.227497227	41.285056060000002
      0.2314416	41.53385428
      0.23545417299999999	41.785244059999997
      0.23953876299999999	42.039585369999998
      0.24369946200000001	42.297265359999997
      0.247940667	42.558702250000003
      0.25226710400000002	42.824349750000003
      0.25668386300000001	43.0947022
      0.26119642799999998	43.370300520000001
      0.26581071499999998	43.651739030000002
      0.27054201700000002	43.94020278
      0.275438138	44.23873004
      0.28051031599999998	44.548036490000001
      0.28576849199999999	44.868763260000001
      0.29122336399999998	45.201605100000002
      0.296886504	45.547319020000003
      0.30277045699999999	45.906731970000003
      0.30888884599999999	46.280749559999997
      0.31525650100000002	46.670366299999998
      0.321889598	47.076677459999999
      0.328805825	47.50089294
      0.33602457000000002	47.944353649999996
      0.34356714500000002	48.408550759999997
      0.351457032	48.895148689999999
      0.35972019	49.406012390000001
      0.36838539799999998	49.943240269999997
      0.37748466600000002	50.509203810000002
      0.38705371900000002	51.106595769999998
      0.39713256899999999	51.738489119999997
      0.40776619800000002	52.408409570000003
      0.41900536300000002	53.120425429999997
      0.43090757000000002	53.879259759999997
      0.44353822799999998	54.690431349999997
      0.45697202599999998	55.560433060000001
      0.47129457299999999	56.49695913
      0.486604327	57.509196449999997
      0.503014823	58.60819978
      0.520657166	59.807376320000003
      0.53968265500000001	61.123111049999999
      0.56026517099999995	62.575567960000001
      0.58260257699999995	64.189698669999999
      0.60691558199999995	65.996464399999994
      0.63344113800000001	68.034201780000004
      0.662415215	70.349880479999996
      0.69403682899999997	72.999622560000006
      0.72840307800000004	76.047204840000006
      0.76540934699999996	79.558509650000005
      0.80463064699999998	83.589963030000007
      0.84524547999999999	88.171938179999998
      0.88609953900000005	93.294734669999997
      0.92594964300000004	98.90894376
      0.963771241	104.9435902
      0.99893980100000002	111.3300564
      1.0312218310000001	118.0174305
      1.0606584889999999	124.9760964
      1.0874410889999999	132.19454709999999
      1.1118223309999999	139.6744898
      1.1340651580000001	147.42664859999999
      1.1544176930000001	155.46782519999999
      1.173103241	163.8190534
      1.1903180360000001	172.50453999999999
      1.2062325739999999	181.55112829999999
      1.220994358	190.98810510000001
      1.234730984	200.84723579999999
      1.2475531	211.16296399999999
      1.2595570490000001	221.97273730000001
      1.270827143	233.31744900000001
      1.281437594	245.2419931
      1.291454146	257.79594609999998
      1.3009354369999999	271.03439809999998
      1.309934159	285.01896390000002
      1.318498043	299.81902289999999
      1.326670706	315.51324579999999
      1.3344924010000001	332.19149570000002
      1.3420006879999999	349.95721329999998
      1.3492310569999999	368.93044570000001
      1.356217531	389.25173360000002
      1.362993272	411.08716509999999
      1.3695912379999999	434.63503709999998
      1.3760449050000001	460.1347695
      1.382389146	487.87903890000001
      1.3886613240000001	518.23060969999995
      1.394902732	551.64618570000005
      1.401160583	588.71104339999999
      1.4074908660000001	630.19074279999995
      1.4139626249999999	677.11087850000001
      1.420664664	730.8848299
      1.4277165590000001	793.52783980000004
      1.435287779	868.03580320000003
      1.4436331710000001	959.10175079999999
      1.453164339	1074.5891859999999
      1.464608755	1228.9034079999999
      1.479413587	1451.8548430000001
      1.5007295060000001	1812.597843
      1.531321148	2396.2922779999999
      1.5749716949999999	3340.7297119999998
      1.6351726849999999	4868.8615820000005
      1.6746062129999999	6056.7860730000002
      1.7053540309999999	7126.7301200000002
      1.7307497590000001	8135.9466300000004
      1.752580204	9119.3875740000003
      1.771845345	10098.25848
      1.789165838	11087.22133
      1.804957089	12097.58993
      1.819514077	13138.977849999999
      1.8330565510000001	14220.25051
      1.845754994	15350.15127
      1.8577465099999999	16537.778849999999
      1.869145125	17793.012470000001
      1.8800488470000001	19126.948680000001
      1.8905448170000001	20552.403480000001
      1.9007133519999999	22084.53774
      1.9106314310000001	23741.68173
      1.920376064	25546.46932
      1.930027954	27527.455720000002
      1.9396760099999999	29721.505959999999
      1.9494234969999999	32177.45292
      1.959397184	34961.935420000002
      1.969762051	38169.180130000001
      1.980746793	41938.394229999998
      1.9926918389999999	46487.096960000003
      2.0061495709999999	52181.595710000001
      2.022124024	59707.652569999998
      2.042772002	70576.241299999994
      2.0725625070000002	88161.987269999998
      2.1158769670000002	116616.322
      2.1803765140000002	162656.4026
      2.2792825830000001	237150.818
      2.3747656959999999	310949.48619999998
  <EndBlock>
  <BeginBlock>
    <BlockName> = "ShaftAir"
    <Mu_x> = 1
    <Mu_y> = 1
    <H_c> = 0
    <H_cAngle> = 0
    <J_re> = 0
    <J_im> = 0
    <Sigma> = 0
    <d_lam> = 0
    <Phi_h> = 0
    <Phi_hx> = 0
    <Phi_hy> = 0
    <LamType> = 0
    <LamFill> = 1
    <NStrands> = 0
    <WireD> = 0
    <BHPoints> = 3
      -100	-7.9577471545947675e-011
      0	0
      100	7.9577471545947675e-011
  <EndBlock>
  <BeginBlock>
    <BlockName> = "Copper"
    <Mu_x> = 1
    <Mu_y> = 1
    <H_c> = 0
    <H_cAngle> = 0
    <J_re> = 0
    <J_im> = 0
    <Sigma> = 58
    <d_lam> = 0
    <Phi_h> = 0
    <Phi_hx> = 0
    <Phi_hy> = 0
    <LamType> = 0
    <LamFill> = 1
    <NStrands> = 0
    <WireD> = 0
    <BHPoints> = 0
  <EndBlock>
  <BeginBlock>
    <BlockName> = "Aluminium"
    <Mu_x> = 1
    <Mu_y> = 1
    <H_c> = 0
    <H_cAngle> = 0
    <J_re> = 0
    <J_im> = 0
    <Sigma> = 29
    <d_lam> = 0
    <Phi_h> = 0
    <Phi_hx> = 0
    <Phi_hy> = 0
    <LamType> = 0
    <LamFill> = 1
    <NStrands> = 0
    <WireD> = 0
    <BHPoints> = 0
  <EndBlock>
  <BeginBlock>
    <BlockName> = "BMH-38EH"
    <Mu_x> = 1.05
    <Mu_y> = 1.05
    <H_c> = 954929.65855137201
    <H_cAngle> = 0
    <J_re> = 0
    <J_im> = 0
    <Sigma> = 0.66666666666666663
    <d_lam> = 0
    <Phi_h> = 0
    <Phi_hx> = 0
    <Phi_hy> = 0
    <LamType> = 0
    <LamFill> = 1
    <NStrands> = 0
    <WireD> = 0
    <BHPoints> = 0
  <EndBlock>
  <BeginBlock>
    <BlockName> = "DW235"
    <Mu_x> = 1
    <Mu_y> = 1
    <H_c> = 0
    <H_cAngle> = 0
    <J_re> = 0
    <J_im> = 0
    <Sigma> = 0
    <d_lam> = 0
    <Phi_h> = 0
    <Phi_hx> = 0
    <Phi_hy> = 0
    <LamType> = 0
    <LamFill> = 1
    <NStrands> = 0
    <WireD> = 0
    <BHPoints> = 0
  <EndBlock>
  <BeginBlock>
    <BlockName> = "Air"
    <Mu_x> = 1
    <Mu_y> = 1
    <H_c> = 0
    <H_cAngle> = 0
    <J_re> = 0
    <J_im> = 0
    <Sigma> = 0
    <d_lam> = 0
    <Phi_h> = 0
    <Phi_hx> = 0
    <Phi_hy> = 0
    <LamType> = 0
    <LamFill> = 1
    <NStrands> = 0
    <WireD> = 0
    <BHPoints> = 0
  <EndBlock>
  <BeginBlock>
    <BlockName> = "BMH-38EH_1"
    <Mu_x> = 1.05
    <Mu_y> = 1.05
    <H_c> = 954929.65855137201
    <H_cAngle> = 0
    <J_re> = 0
    <J_im> = 0
    <Sigma> = 0.66666666666666663
    <d_lam> = 0
    <Phi_h> = 0
    <Phi_hx> = 0
    <Phi_hy> = 0
    <LamType> = 0
    <LamFill> = 1
    <NStrands> = 0
    <WireD> = 0
    <BHPoints> = 0
  <EndBlock>
  <BeginBlock>
    <BlockName> = "BMH-38EH_2"
    <Mu_x> = 1.05
    <Mu_y> = 1.05
    <H_c> = 954929.65855137201
    <H_cAngle> = 0
    <J_re> = 0
    <J_im> = 0
    <Sigma> = 0.66666666666666663
    <d_lam> = 0
    <Phi_h> = 0
    <Phi_hx> = 0
    <Phi_hy> = 0
    <LamType> = 0
    <LamFill> = 1
    <NStrands> = 0
    <WireD> = 0
    <BHPoints> = 0
  <EndBlock>
[CircuitProps]  = 6
  <BeginCircuit>
    <CircuitName> = "fase1"
    <TotalAmps_re> = -1026.4417378875974
    <TotalAmps_im> = -0
    <CircuitType> = 1
  <EndCircuit>
  <BeginCircuit>
    <CircuitName> = "fase2"
    <TotalAmps_re> = 2335.7864332607519
    <TotalAmps_im> = 0
    <CircuitType> = 1
  <EndCircuit>
  <BeginCircuit>
    <CircuitName> = "fase3"
    <TotalAmps_re> = -1309.344695373155
    <TotalAmps_im> = -0
    <CircuitType> = 1
  <EndCircuit>
  <BeginCircuit>
    <CircuitName> = "fase1n"
    <TotalAmps_re> = 1026.4417378875974
    <TotalAmps_im> = 0
    <CircuitType> = 1
  <EndCircuit>
  <BeginCircuit>
    <CircuitName> = "fase2n"
    <TotalAmps_re> = -2335.7864332607519
    <TotalAmps_im> = -0
    <CircuitType> = 1
  <EndCircuit>
  <BeginCircuit>
    <CircuitName> = "fase3n"
    <TotalAmps_re> = 1309.344695373155
    <TotalAmps_im> = 0
    <CircuitType> = 1
  <EndCircuit>
[NumPoints] = 67
348.92106680659481	27.460683504745731	0	2
345.94360703651182	27.226352338838566	0	2
345.69091920829823	54.752062764080804	0	20
342.74102336438739	54.284845161827306	0	2
344.04284252053469	51.724527362122544	0	2
343.15680021765962	51.59131686135089	0	2
350.00000000000006	0	0	20
347.01333333333332	-3.5527136788005009e-015	0	2
347.89860299009365	2.7324454222576335	0	2
347.0026306248439	2.7254083270613485	0	2
154.44	0	0	2
152.53858732151306	24.159738780813257	0	2
0	0	0	2
500	0	0	1
353.11111111111109	0	0	20
493.84417029756889	78.217232520115431	0	1
348.76372737903864	55.238747766428183	0	20
357.35733512502782	11.900798133383461	0	1
357.42388204621676	9.3594737422165508	0	1
357.90189830370082	14.169067016309871	0	1
489.56535507564803	17.616795968868111	0	1
490.97521246825363	16.285415336502467	0	1
491.08166089424253	12.859425856242684	0	1
491.1546607876495	9.4325604953321065	0	1
489.81641463411967	8.0292182390433542	0	1
358.15295786217246	4.5814892864851124	0	1
357.49042896740571	6.8181493510496418	0	1
424.36660209584591	6.3153545811981324	0	1
424.11554253737427	15.902932311022891	0	1
352.91441368069195	11.784456140904023	0	1
353.04750752306984	6.7018073585702043	0	1
356.244749666676	30.587126357347294	0	1
356.44420802975748	28.052767559691283	0	1
356.66985451943458	32.880786891292921	0	1
487.97243090818455	43.214523763557388	0	1
489.45003521875083	41.958753976885035	0	1
489.73564019639912	38.543030776303823	0	1
489.98788832156828	35.124682334498218	0	1
488.72492144680075	33.653224917865721	0	1
357.42234505805078	23.319488045601254	0	1
356.64366639283895	25.518408762035264	0	1
423.45450229533373	28.516331525487004	0	1
422.70201175671752	38.077630371178671	0	1
351.81400596119533	30.238419265223534	0	1
352.21292268735834	25.169701669911507	0	1
354.15572211175675	49.189617394050728	0	1
354.48754521522181	46.669170691208862	0	1
354.46020345574829	51.502382814922413	0	1
485.04200822614962	68.69380355241546	0	1
486.58330944396823	67.51708658913418	0	1
487.04728814988437	64.120991928100338	0	1
487.47809311223824	60.720529860872198	0	1
486.29386722064891	59.184990446395197	0	1
355.71206245024757	41.993569708902143	0	1
354.81936831868683	44.148723988366996	0	1
421.38174313799152	50.639147187210412	0	1
420.12988414349223	60.147960293230682	0	1
349.74930050565092	48.609500984183825	0	1
350.41294671258095	43.568607578500092	0	1
499.3147673772869	26.167978121471915	0	1
352.62718460555948	18.480407660008385	0	1
497.26094768413662	52.264231633826732	0	1
351.17673149781916	36.910161807178078	0	1
352.07407407407408	0	0	20
347.73945798879186	55.076519432312395	0	20
351.03703703703701	0	0	20
346.71518859854501	54.914291098196593	0	20
[NumSegments] = 56
0	1	1.1111111111111112	0	0	2
3	2	-1	4	0	2
5	4	1.1111111111111112	0	0	2
7	6	-1	4	0	2
9	8	1.1111111111111112	0	0	2
7	10	-1	3	0	2
11	3	-1	3	0	2
10	12	-1	2	0	2
12	11	-1	2	0	2
13	14	-1	10	0	1
16	15	-1	10	0	1
17	18	1.1111111111111112	0	0	1
19	17	1.1111111111111112	0	0	1
20	28	1.1111111111111112	0	0	1
22	21	1.1111111111111112	0	0	1
23	22	1.1111111111111112	0	0	1
25	27	1.1111111111111112	0	0	1
26	25	1.1111111111111112	0	0	1
18	26	1.1111111111111112	0	0	1
27	24	1.1111111111111112	0	0	1
28	19	1.1111111111111112	0	0	1
27	28	1.1111111111111112	0	0	1
17	29	1.1111111111111112	0	0	1
30	26	1.1111111111111112	0	0	1
31	32	1.1111111111111112	0	0	1
33	31	1.1111111111111112	0	0	1
34	42	1.1111111111111112	0	0	1
36	35	1.1111111111111112	0	0	1
37	36	1.1111111111111112	0	0	1
39	41	1.1111111111111112	0	0	1
40	39	1.1111111111111112	0	0	1
32	40	1.1111111111111112	0	0	1
41	38	1.1111111111111112	0	0	1
42	33	1.1111111111111112	0	0	1
41	42	1.1111111111111112	0	0	1
31	43	1.1111111111111112	0	0	1
44	40	1.1111111111111112	0	0	1
45	46	1.1111111111111112	0	0	1
47	45	1.1111111111111112	0	0	1
48	56	1.1111111111111112	0	0	1
50	49	1.1111111111111112	0	0	1
51	50	1.1111111111111112	0	0	1
53	55	1.1111111111111112	0	0	1
54	53	1.1111111111111112	0	0	1
46	54	1.1111111111111112	0	0	1
55	52	1.1111111111111112	0	0	1
56	47	1.1111111111111112	0	0	1
55	56	1.1111111111111112	0	0	1
45	57	1.1111111111111112	0	0	1
58	54	1.1111111111111112	0	0	1
59	60	1.1111111111111112	0	0	1
61	62	1.1111111111111112	0	0	1
63	14	0.11111111111111112	7	0	20
64	16	0.11111111111111112	7	0	20
65	6	0.11111111111111112	5	0	20
66	2	0.11111111111111112	5	0	20
[NumArcSegments] = 29
0	2	4.5	0.045472840883398674	0	0	2	0.045472840883398674
1	5	4.049999999999998	0.045864215522524218	0	0	2	0.045864215522524218
0	4	13.735437261965451	0.15379259863758879	0	0	2	0.15379259863758879
5	3	0.44999999999999934	0.045864215522524211	0	0	2	0.045864215522524211
6	0	4.5	0.04547284088339866	0	0	2	0.04547284088339866
7	9	0.45000000000000062	0.045864215522524211	0	0	2	0.045864215522524211
8	0	13.735437261965441	0.15379259863758885	0	0	2	0.15379259863758885
9	1	4.0500000000000007	0.045864215522524218	0	0	2	0.045864215522524218
10	11	9.0000000000000018	0.10305292870493095	0	0	2	0.10305292870493095
13	59	3	1.1111111111111112	1	0	1	0.14000000000000001
14	30	1.0874999999999997	0.04507219911350089	0	0	1	0.04507219911350089
21	20	89.720343626461343	10	0	0	1	10
24	23	89.720343626464285	10	0	0	1	10
29	60	1.0874999999999995	0.04507219911350089	0	0	1	0.04507219911350089
30	29	0.82500000000000018	0.04507219911350089	0	0	1	0.04507219911350089
35	34	89.720343626460476	10	0	0	1	10
38	37	89.720343626465393	10	0	0	1	10
43	62	1.0874999999999995	0.04507219911350089	0	0	1	0.04507219911350089
44	43	0.82499999999999973	0.04507219911350089	0	0	1	0.04507219911350089
49	48	89.720343626460036	10	0	0	1	10
52	51	89.720343626463716	10	0	0	1	10
57	16	1.0874999999999999	0.04507219911350089	0	0	1	0.04507219911350089
58	57	0.82500000000000029	0.04507219911350089	0	0	1	0.04507219911350089
59	61	2.9999999999999987	1.1111111111111112	1	0	1	0.17999999999999999
60	44	1.0874999999999995	0.04507219911350089	0	0	1	0.04507219911350089
61	15	2.9999999999999987	1.1111111111111112	1	0	1	0.14000000000000001
62	58	1.0875000000000006	0.04507219911350089	0	0	1	0.04507219911350089
63	64	9	0.11111111111111112	11	0	20	0.027
65	66	9	0.11111111111111112	11	0	20	0.027
[NumHoles] = 0
[NumBlockLabels] = 20
345.98950560389324	39.57345854443286	8	1.1111111111111112	0	-175.50000000000009	201	1	0
347.92045347043154	15.038439617317636	9	1.1111111111111112	0	-175.50000000000003	202	1	0
343.90789632771998	53.08818803734539	7	1.1111111111111112	0	0	2	1	0
347.97864173706773	1.3644634373297428	7	1.1111111111111112	0	0	2	1	0
249.95376002912806	19.671787541523468	1	1.1111111111111112	0	0	22	1	0
76.981956510872138	6.0586113721041865	7	1.1111111111111112	0	0	2	1	0
390.83247718141342	10.234308594163531	3	1.1111111111111112	1	0	1	1	0
457.64966745180675	11.98397829805749	3	1.1111111111111112	1	0	1	1	0
355.20699539934839	9.301422522353878	7	1.1111111111111112	0	0	10	1	0
495.45516169101057	12.97395000508963	1	1.1111111111111112	0	0	12	1	0
389.76123252789159	30.67487425401206	3	1.1111111111111112	3	0	1	-1	0
456.39528152415971	35.919087642653608	3	1.1111111111111112	3	0	1	-1	0
354.23339771509427	27.878773014461814	7	1.1111111111111112	0	0	10	1	0
494.09715353148152	38.88628932011315	1	1.1111111111111112	0	0	12	1	0
387.62167942798186	51.031362215714708	3	1.1111111111111112	2	0	1	1	0
453.88994785350195	59.755745264726393	3	1.1111111111111112	2	0	1	1	0
352.28887091016469	46.379709727566862	7	1.1111111111111112	0	0	10	1	0
491.3848594183948	64.692044019063061	1	1.1111111111111112	0	0	12	1	0
351.50566730145846	27.664095975151255	7	0.11111111111111112	0	0	20	1	0
349.43798690556753	27.501365998826838	7	0.11111111111111112	0	0	20	1	0
