[Format]      =  4.0
[Frequency]   =  0
[Precision]   =  1e-008
[MinAngle]    =  15
[DoSmartMesh] =  1
[Depth]       =  110
[LengthUnits] =  millimeters
[ProblemType] =  planar
[Coordinates] =  cartesian
[ACSolver]    =  0
[PrevType]    =  0
[PrevSoln]    =  ""
[Comment]     =  "Add comments here."
[PointProps]   = 0
[BdryProps]   = 11
  <BeginBdry>
    <BdryName> = "A=0"
    <BdryType> = 0
    <A_0> = 0
    <A_1> = 0
    <A_2> = 0
    <Phi> = 0
    <c0> = 0
    <c0i> = 0
    <c1> = 0
    <c1i> = 0
    <Mu_ssd> = 0
    <Sigma_ssd> = 0
    <innerangle> = 0
    <outerangle> = 0
  <EndBdry>
  <BeginBdry>
    <BdryName> = "APr1"
    <BdryType> = 5
    <A_0> = 0
    <A_1> = 0
    <A_2> = 0
    <Phi> = 0
    <c0> = 0
    <c0i> = 0
    <c1> = 0
    <c1i> = 0
    <Mu_ssd> = 0
    <Sigma_ssd> = 0
    <innerangle> = 0
    <outerangle> = 0
  <EndBdry>
  <BeginBdry>
    <BdryName> = "APr2"
    <BdryType> = 5
    <A_0> = 0
    <A_1> = 0
    <A_2> = 0
    <Phi> = 0
    <c0> = 0
    <c0i> = 0
    <c1> = 0
    <c1i> = 0
    <Mu_ssd> = 0
    <Sigma_ssd> = 0
    <innerangle> = 0
    <outerangle> = 0
  <EndBdry>
  <BeginBdry>
    <BdryName> = "APr3"
    <BdryType> = 5
    <A_0> = 0
    <A_1> = 0
    <A_2> = 0
    <Phi> = 0
    <c0> = 0
    <c0i> = 0
    <c1> = 0
    <c1i> = 0
    <Mu_ssd> = 0
    <Sigma_ssd> = 0
    <innerangle> = 0
    <outerangle> = 0
  <EndBdry>
  <BeginBdry>
    <BdryName> = "APg1"
    <BdryType> = 5
    <A_0> = 0
    <A_1> = 0
    <A_2> = 0
    <Phi> = 0
    <c0> = 0
    <c0i> = 0
    <c1> = 0
    <c1i> = 0
    <Mu_ssd> = 0
    <Sigma_ssd> = 0
    <innerangle> = 0
    <outerangle> = 0
  <EndBdry>
  <BeginBdry>
    <BdryName> = "APg2"
    <BdryType> = 5
    <A_0> = 0
    <A_1> = 0
    <A_2> = 0
    <Phi> = 0
    <c0> = 0
    <c0i> = 0
    <c1> = 0
    <c1i> = 0
    <Mu_ssd> = 0
    <Sigma_ssd> = 0
    <innerangle> = 0
    <outerangle> = 0
  <EndBdry>
  <BeginBdry>
    <BdryName> = "APg3"
    <BdryType> = 5
    <A_0> = 0
    <A_1> = 0
    <A_2> = 0
    <Phi> = 0
    <c0> = 0
    <c0i> = 0
    <c1> = 0
    <c1i> = 0
    <Mu_ssd> = 0
    <Sigma_ssd> = 0
    <innerangle> = 0
    <outerangle> = 0
  <EndBdry>
  <BeginBdry>
    <BdryName> = "APs1"
    <BdryType> = 5
    <A_0> = 0
    <A_1> = 0
    <A_2> = 0
    <Phi> = 0
    <c0> = 0
    <c0i> = 0
    <c1> = 0
    <c1i> = 0
    <Mu_ssd> = 0
    <Sigma_ssd> = 0
    <innerangle> = 0
    <outerangle> = 0
  <EndBdry>
  <BeginBdry>
    <BdryName> = "APs2"
    <BdryType> = 5
    <A_0> = 0
    <A_1> = 0
    <A_2> = 0
    <Phi> = 0
    <c0> = 0
    <c0i> = 0
    <c1> = 0
    <c1i> = 0
    <Mu_ssd> = 0
    <Sigma_ssd> = 0
    <innerangle> = 0
    <outerangle> = 0
  <EndBdry>
  <BeginBdry>
    <BdryName> = "APs3"
    <BdryType> = 5
    <A_0> = 0
    <A_1> = 0
    <A_2> = 0
    <Phi> = 0
    <c0> = 0
    <c0i> = 0
    <c1> = 0
    <c1i> = 0
    <Mu_ssd> = 0
    <Sigma_ssd> = 0
    <innerangle> = 0
    <outerangle> = 0
  <EndBdry>
  <BeginBdry>
    <BdryName> = "AGap"
    <BdryType> = 7
    <A_0> = 0
    <A_1> = 0
    <A_2> = 0
    <Phi> = 0
    <c0> = 0
    <c0i> = 0
    <c1> = 0
    <c1i> = 0
    <Mu_ssd> = 0
    <Sigma_ssd> = 0
    <innerangle> = 3.3333333333333335
    <outerangle> = 0
  <EndBdry>
[BlockProps]  = 7
  <BeginBlock>
    <BlockName> = "M600-50A"
    <Mu_x> = 1
    <Mu_y> = 1
    <H_c> = 0
    <H_cAngle> = 0
    <J_re> = 0
    <J_im> = 0
    <Sigma> = 0
    <d_lam> = 0
    <Phi_h> = 0
    <Phi_hx> = 0
    <Phi_hy> = 0
    <LamType> = 0
    <LamFill> = 1
    <NStrands> = 0
    <WireD> = 0
    <BHPoints> = 208
      0	0
      0.0061294119999999999	8.2635015680000006
      0.012398954	15.54584049
      0.018188152999999999	21.42337126
      0.023698273999999998	26.396066560000001
      0.028962854999999999	30.670770340000001
      0.034031080999999998	34.409892589999998
      0.038937833999999998	37.72521158
      0.043710287	40.697869570000002
      0.048369641999999997	43.388214720000001
      0.052932743999999997	45.842257519999997
      0.057413198999999998	48.095830579999998
      0.061822165999999998	50.17736026
      0.066168929000000001	52.109762629999999
      0.070461307000000001	53.911772880000001
      0.074705967999999998	55.598898519999999
      0.078908651999999996	57.184116670000002
      0.083074354000000003	58.67839326
      0.087207454000000004	60.091076020000003
      0.091311829999999997	61.430196219999999
      0.095390935999999996	62.702703470000003
      0.099447875000000005	63.914650479999999
      0.10348545000000001	65.071340269999993
      0.107506212	66.177444339999994
      0.111512495	67.237098649999993
      0.115506446	68.253982050000005
      0.119490053	69.231381029999994
      0.123465163	70.172243330000001
      0.127433505	71.079222909999999
      0.131396704	71.954717669999994
      0.13535628999999999	72.800901379999999
      0.139313718	73.619750830000001
      0.14327037200000001	74.413069070000006
      0.147227575	75.182505329999998
      0.151186599	75.929572239999999
      0.15514867099999999	76.655660710000006
      0.15911497799999999	77.362052919999996
      0.16308667299999999	78.049933670000001
      0.167064883	78.720400249999997
      0.171050709	79.374471249999999
      0.17504523399999999	80.013094219999999
      0.17904952399999999	80.637152520000001
      0.183064634	81.247471390000001
      0.18709161099999999	81.844823349999999
      0.19113149500000001	82.429933079999998
      0.19518532499999999	83.003481679999993
      0.19925414	83.566110629999997
      0.203338983	84.118425299999998
      0.20744090200000001	84.6609981
      0.21156095499999999	85.194371430000004
      0.21570021	85.719060249999998
      0.21985974999999999	86.23555451
      0.224040674	86.744321339999999
      0.228244101	87.245807119999995
      0.232471172	87.740439260000002
      0.23672305199999999	88.228628009999994
      0.241000933	88.710768049999999
      0.245306038	89.187239969999993
      0.249639624	89.658411700000002
      0.25400298399999999	90.124639849999994
      0.258397449	90.586270990000003
      0.26282439699999999	91.043642790000007
      0.267285249	91.497085290000001
      0.27178147899999999	91.946921900000007
      0.27631461499999999	92.393470609999994
      0.28088624499999998	92.837044969999994
      0.28549801899999999	93.277955219999996
      0.29015165799999998	93.716509279999997
      0.294848956	94.153013889999997
      0.299591787	94.587775629999996
      0.30438211199999998	95.021102040000002
      0.30922198299999998	95.45330276
      0.31411355600000002	95.884690719999995
      0.31905909100000002	96.315583349999997
      0.324060968	96.746303900000001
      0.32912169099999999	97.177182860000002
      0.33424390300000001	97.608559369999995
      0.33943039400000002	98.040782919999998
      0.34468411100000002	98.474215020000003
      0.35000818	98.909231149999997
      0.35540591100000002	99.346222819999994
      0.36088082199999999	99.785599880000007
      0.366436651	100.2277931
      0.37207738099999998	100.67325700000001
      0.37780725700000001	101.1224732
      0.38363081700000001	101.57595360000001
      0.389552911	102.03424510000001
      0.39557873700000001	102.4979336
      0.401713873	102.9676498
      0.40796431599999999	103.44407510000001
      0.41433652900000001	103.9279489
      0.420837509	104.4200783
      0.42747497499999998	104.9213567
      0.43425898400000001	105.43288579999999
      0.44146202099999998	105.9749185
      0.44856258700000001	106.5079061
      0.45587690400000003	107.05707719999999
      0.46342101400000002	107.62377619999999
      0.47120716099999999	108.2090887
      0.47924850299999999	108.8142005
      0.48755929799999997	109.4404164
      0.496155022	110.0891769
      0.50505251799999995	110.7620768
      0.51427015700000001	111.4608879
      0.52382802100000003	112.1875854
      0.53374812500000002	112.944379
      0.54405466000000002	113.73375040000001
      0.55477427700000004	114.558498
      0.56593642099999997	115.4217907
      0.57757370900000005	116.3272333
      0.58972237000000005	117.2789456
      0.60242275199999995	118.28165920000001
      0.61571989900000001	119.3408371
      0.62966422099999997	120.4628209
      0.64431222899999996	121.65501310000001
      0.65972736300000001	122.92610569999999
      0.67598086099999999	124.28636400000001
      0.69315263800000004	125.74798269999999
      0.71133206000000004	127.3255305
      0.73061842099999996	129.03650049999999
      0.75112078999999998	130.90198509999999
      0.772956635	132.94748089999999
      0.79624826999999998	135.20380520000001
      0.82111564500000001	137.70804709999999
      0.84766332799999999	140.50436830000001
      0.87595905799999996	143.6442744
      0.90600166900000001	147.18571779999999
      0.93767904199999996	151.19014369999999
      0.97072398500000001	155.71669249999999
      1.0046871660000001	160.81373919999999
      1.0389539999999999	166.5100477
      1.0728218	172.80985770000001
      1.1056189649999999	179.69557180000001
      1.1368151129999999	187.13741469999999
      1.166076154	195.10516089999999
      1.1932571599999999	203.57694960000001
      1.2183581130000001	212.54344710000001
      1.2414717689999999	222.00841339999999
      1.262740478	231.98749659999999
      1.2823264919999999	242.50660869999999
      1.3003940249999999	253.6005657
      1.317099609	265.31223169999998
      1.332587655	277.69219570000001
      1.346989049	290.79894300000001
      1.360421377	304.69948410000001
      1.3729899480000001	319.47042970000001
      1.3847891750000001	335.19953839999999
      1.395904035	351.98780690000001
      1.406411522	369.95222330000001
      1.416382027	389.22936779999998
      1.4258806550000001	409.98013700000001
      1.4349684949999999	432.3959911
      1.443703884	456.70731569999998
      1.452143746	483.19477810000001
      1.460345062	512.205018
      1.468366627	544.17275689999997
      1.476271267	579.65265699999998
      1.484128812	619.36640990000001
      1.4920203320000001	664.27439319999996
      1.5000444559999999	715.68841520000001
      1.5083273020000001	775.45608200000004
      1.517038858	846.27605440000002
      1.52642144	932.26565330000005
      1.5368418420000001	1040.044543
      1.5488919160000001	1180.938134
      1.5635876129999999	1375.704356
      1.5827254589999999	1664.518061
      1.609038255	2120.3213700000001
      1.6429877180000001	2803.4219309999999
      1.6763000130000001	3588.174364
      1.7038913950000001	4346.5592559999996
      1.7268422349999999	5076.0393119999999
      1.746445904	5791.6494789999997
      1.7635818270000001	6506.5344940000004
      1.778835427	7231.1495919999998
      1.792609184	7974.1327339999998
      1.805191346	8743.1111569999994
      1.8167966790000001	9545.295204
      1.8275911469999999	10387.927960000001
      1.837707435	11278.663500000001
      1.8472551399999999	12225.930109999999
      1.8563277979999999	13239.325269999999
      1.865008022	14330.08987
      1.873371527	15511.71947
      1.8814906259999999	16800.793989999998
      1.88943763	18218.15107
      1.8972886259999999	19790.607090000001
      1.905128269	21553.57647
      1.913056538	23555.22162
      1.921199232	25863.341659999998
      1.92972568	28577.465530000001
      1.938881257	31851.611560000001
      1.949053186	35941.14198
      1.960921235	41311.621829999996
      1.975868577	48939.738250000002
      1.9972472800000001	61282.289870000001
      2.0280781640000001	81252.957920000001
      2.0737002590000002	113566.1776
      2.1433819129999998	165850.06529999999
      2.250195926	248560.18210000001
      2.3541325240000002	331270.29889999999
      2.4580691219999999	413980.41570000001
      2.5620057200000002	496690.53249999997
      2.665942319	579400.64930000005
      2.7698789170000002	662110.76610000001
      2.873815515	744820.88289999997
      2.9777521130000002	827530.99970000004
      3.081688711	910241.1165
  <EndBlock>
  <BeginBlock>
    <BlockName> = "ShaftAir"
    <Mu_x> = 1
    <Mu_y> = 1
    <H_c> = 0
    <H_cAngle> = 0
    <J_re> = 0
    <J_im> = 0
    <Sigma> = 0
    <d_lam> = 0
    <Phi_h> = 0
    <Phi_hx> = 0
    <Phi_hy> = 0
    <LamType> = 0
    <LamFill> = 1
    <NStrands> = 0
    <WireD> = 0
    <BHPoints> = 3
      -100	-7.9577471545947675e-011
      0	0
      100	7.9577471545947675e-011
  <EndBlock>
  <BeginBlock>
    <BlockName> = "Copper"
    <Mu_x> = 1
    <Mu_y> = 1
    <H_c> = 0
    <H_cAngle> = 0
    <J_re> = 0
    <J_im> = 0
    <Sigma> = 58
    <d_lam> = 0
    <Phi_h> = 0
    <Phi_hx> = 0
    <Phi_hy> = 0
    <LamType> = 0
    <LamFill> = 1
    <NStrands> = 0
    <WireD> = 0
    <BHPoints> = 0
  <EndBlock>
  <BeginBlock>
    <BlockName> = "Aluminium"
    <Mu_x> = 1
    <Mu_y> = 1
    <H_c> = 0
    <H_cAngle> = 0
    <J_re> = 0
    <J_im> = 0
    <Sigma> = 29
    <d_lam> = 0
    <Phi_h> = 0
    <Phi_hx> = 0
    <Phi_hy> = 0
    <LamType> = 0
    <LamFill> = 1
    <NStrands> = 0
    <WireD> = 0
    <BHPoints> = 0
  <EndBlock>
  <BeginBlock>
    <BlockName> = "Air"
    <Mu_x> = 1
    <Mu_y> = 1
    <H_c> = 0
    <H_cAngle> = 0
    <J_re> = 0
    <J_im> = 0
    <Sigma> = 0
    <d_lam> = 0
    <Phi_h> = 0
    <Phi_hx> = 0
    <Phi_hy> = 0
    <LamType> = 0
    <LamFill> = 1
    <NStrands> = 0
    <WireD> = 0
    <BHPoints> = 0
  <EndBlock>
  <BeginBlock>
    <BlockName> = "DW235"
    <Mu_x> = 1
    <Mu_y> = 1
    <H_c> = 0
    <H_cAngle> = 0
    <J_re> = 0
    <J_im> = 0
    <Sigma> = 0
    <d_lam> = 0
    <Phi_h> = 0
    <Phi_hx> = 0
    <Phi_hy> = 0
    <LamType> = 0
    <LamFill> = 1
    <NStrands> = 0
    <WireD> = 0
    <BHPoints> = 0
  <EndBlock>
  <BeginBlock>
    <BlockName> = "Air"
    <Mu_x> = 1
    <Mu_y> = 1
    <H_c> = 0
    <H_cAngle> = 0
    <J_re> = 0
    <J_im> = 0
    <Sigma> = 0
    <d_lam> = 0
    <Phi_h> = 0
    <Phi_hx> = 0
    <Phi_hy> = 0
    <LamType> = 0
    <LamFill> = 1
    <NStrands> = 0
    <WireD> = 0
    <BHPoints> = 0
  <EndBlock>
[CircuitProps]  = 6
  <BeginCircuit>
    <CircuitName> = "fase1"
    <TotalAmps_re> = 1002.1079449149897
    <TotalAmps_im> = 0
    <CircuitType> = 1
  <EndCircuit>
  <BeginCircuit>
    <CircuitName> = "fase2"
    <TotalAmps_re> = -564.07644168784532
    <TotalAmps_im> = -0
    <CircuitType> = 1
  <EndCircuit>
  <BeginCircuit>
    <CircuitName> = "fase3"
    <TotalAmps_re> = -438.03150322714396
    <TotalAmps_im> = -0
    <CircuitType> = 1
  <EndCircuit>
  <BeginCircuit>
    <CircuitName> = "fase1n"
    <TotalAmps_re> = -1002.1079449149897
    <TotalAmps_im> = -0
    <CircuitType> = 1
  <EndCircuit>
  <BeginCircuit>
    <CircuitName> = "fase2n"
    <TotalAmps_re> = 564.07644168784532
    <TotalAmps_im> = 0
    <CircuitType> = 1
  <EndCircuit>
  <BeginCircuit>
    <CircuitName> = "fase3n"
    <TotalAmps_re> = 438.03150322714396
    <TotalAmps_im> = 0
    <CircuitType> = 1
  <EndCircuit>
[NumPoints] = 131
1287.354824354087	135.30644432931555	0	2
1273.7156669318936	133.87291111878773	0	2
1300.3905526020062	169.43434205110694	0	2
1307.1600518346916	188.22899619871322	0	2
1305.7213935442949	189.02741526806966	0	2
1259.5451829796582	132.3835332396435	0	2
1238.3376121785686	130.15452772875227	0	2
1290.2014857590525	196.77699456755357	0	2
1301.6726593295109	223.03776379009818	0	2
1299.1169342059718	224.56795059122749	0	2
1223.6219442963697	128.60784870957008	0	2
1202.41437349528	126.37884319867887	0	2
1283.5972817654558	234.30142310671437	0	2
1295.3234219981873	257.36120248661177	0	2
1291.0746715261098	259.91048004490057	0	2
1307.2012795830001	104.63460335572225	0	2
1317.7304773377848	87.658115526076713	0	2
1316.4892578414485	86.57802995134017	0	2
1302.9197254129858	75.771027283888202	0	2
1319.6001472497649	52.469109968130027	0	2
1317.4184145771299	50.440996288230409	0	2
1304.2616065064396	37.693506320586906	0	2
1320.5259001617128	17.575640089242683	0	2
1316.9000196888414	14.198705467485581	0	2
1327.5	0	0	20
428.56999999999999	0	0	2
1298.4909399741271	276.00276956057547	0	20
419.20471724648712	89.104713333767108	0	2
0	0	0	2
1500	0	0	1
1329.5	0	0	20
1467.2214011007086	311.86753622663895	0	1
1300.4472351755946	276.41859294221103	0	20
1339.4419468161359	30.342320451224872	0	1
1339.5634367506577	23.382166763949019	0	1
1342.7214713095989	37.708253064461573	0	1
1445.6099003145866	41.301196177112807	0	1
1459.8988376803541	27.817133779409112	0	1
1459.9526082749835	25.483567569560449	0	1
1459.9803107221933	23.149546338506013	0	1
1446.17066478218	9.1750213448089895	0	1
1343.2195207218772	9.175021344808993	0	1
1339.6849266851796	16.422013076673167	0	1
1399.9787987258451	9.1750213448089966	0	1
1399.4461730949911	39.689123299997384	0	1
1329.1577990945275	30.162809985012814	0	1
1329.4007789635712	16.242502610461109	0	1
1337.567063260112	77.069686535529257	0	1
1337.9313850469061	70.118012723391871	0	1
1340.5875226149169	84.545585775884206	0	1
1443.2878828625949	91.72709455345435	0	1
1458.0387027849781	78.749923004715015	0	1
1458.1738809102599	76.419654907040496	0	1
1458.283022648144	74.088022300121935	0	1
1444.96949306025	59.640060516525836	0	1
1342.0810640552618	56.047117403874601	0	1
1338.2957068337005	63.166338911254478	0	1
1398.805765840654	58.027987639410419	0	1
1397.2085378703784	88.504912861703488	0	1
1327.2954451883509	76.531373842744699	0	1
1328.0240887619393	62.62802621846992	0	1
1334.0625602739167	123.70315507846524	0	1
1334.6692700430058	116.76843068518315	0	1
1336.8202745256058	131.27991271428806	0	1
1439.2074414467902	142.04123759455828	0	1
1454.4021723239034	129.5867675793354	0	1
1454.6185932861144	127.26263666656176	0	1
1454.8090413422774	124.93623341895011	0	1
1442.007848591513	110.03243746135036	0	1
1339.3074883438346	102.8509286837802	0	1
1335.2759798120949	109.83370629190104	0	1
1395.9285035992962	106.81025576959949	0	1
1393.2686192658468	137.21287282022433	0	1
1323.8159862364021	122.80669601020364	0	1
1325.0294057745798	108.93724722363942	0	1
1328.9327075546121	170.18591038194839	0	1
1329.7810661235985	163.27658430098239	0	1
1331.424316853163	177.85429530116986	0	1
1433.3735474564937	192.18232526742855	0	1
1448.9936768493324	180.26573063897166	0	1
1449.2910769728674	177.95056850661121	0	1
1449.5625993156889	175.63222898230876	0	1
1437.2893396835486	160.2907568303259	0	1
1334.902172762364	149.52943195005562	0	1
1330.629424692585	156.3672582200164	0	1
1391.350517502605	155.46239205599193	0	1
1387.6312174653181	185.75366002923647	0	1
1318.7236614234446	168.93239713549548	0	1
1320.4203785614175	155.11374497356346	0	1
1322.1837550375431	216.46132036876099	0	1
1323.2727288121903	209.58581054964066	0	1
1324.4062237408284	224.21198982558116	0	1
1425.793308592891	242.08926838037834	0	1
1441.8198057798861	230.72506767363146	0	1
1442.1978227285053	228.42169499011908	0	1
1442.5500885498357	226.11424372872335	0	1
1430.8197151126305	210.35378660300196	0	1
1328.8704845092993	196.02575663674321	0	1
1324.3617025868377	202.71030073052032	0	1
1385.0773851214544	203.92512136480985	0	1
1380.3032007745112	234.0681350166609	0	1
1312.0246749628504	214.85228015691862	0	1
1314.2026225121451	201.10126051867798	0	1
1313.823925281755	262.47300558001456	0	1
1315.1521875152623	255.63968877236337	0	1
1315.7745456540049	270.29651657759945	0	1
1416.47596020939	291.70126301079966	0	1
1432.8892993724121	280.90330175380308	0	1
1433.3474725906924	278.61452482394628	0	1
1433.7800527088907	276.32077309938364	0	1
1422.6068571197286	260.16053268921911	0	1
1321.2197722676656	242.28325413442192	0	1
1316.4804497487694	248.80637196471218	0	1
1377.1167493013486	252.13939932550164	0	1
1371.293497252969	282.09743403699963	0	1
1303.727188537722	260.51039877042729	0	1
1306.3837130047366	246.84376515512491	0	1
1499.0862405286437	52.349245053751453	0	1
1328.6901045218879	46.398880865975038	0	1
1496.3460753897364	104.63471061618796	0	1
1326.2614048204364	92.741231842814585	0	1
1491.78284305241	156.79269490148022	0	1
1322.2168598921194	138.97059191434528	0	1
1485.4021031123555	208.7596514400982	0	1
1316.5613973919178	185.03063772640704	0	1
1477.2116295183121	260.47226650039556	0	1
1309.3019076297305	230.8652522081839	0	1
1328.8333333333333	0	0	20
1299.7951367751054	276.27998514833251	0	20
1328.1666666666667	0	0	20
1299.1430383746163	276.14137735445399	0	20
[NumSegments] = 96
0	1	5.7142857142857135	0	0	2
5	6	5.7142857142857135	0	0	2
10	11	5.7142857142857135	0	0	2
24	25	-1	4	0	2
27	26	-1	4	0	2
25	28	-1	2	0	2
28	27	-1	2	0	2
29	30	-1	10	0	1
32	31	-1	10	0	1
33	34	5.7142857142857135	0	0	1
35	33	5.7142857142857135	0	0	1
36	44	5.7142857142857135	0	0	1
38	37	5.7142857142857135	0	0	1
39	38	5.7142857142857135	0	0	1
41	43	5.7142857142857135	0	0	1
42	41	5.7142857142857135	0	0	1
34	42	5.7142857142857135	0	0	1
43	40	5.7142857142857135	0	0	1
44	35	5.7142857142857135	0	0	1
43	44	5.7142857142857135	0	0	1
33	45	5.7142857142857135	0	0	1
46	42	5.7142857142857135	0	0	1
47	48	5.7142857142857135	0	0	1
49	47	5.7142857142857135	0	0	1
50	58	5.7142857142857135	0	0	1
52	51	5.7142857142857135	0	0	1
53	52	5.7142857142857135	0	0	1
55	57	5.7142857142857135	0	0	1
56	55	5.7142857142857135	0	0	1
48	56	5.7142857142857135	0	0	1
57	54	5.7142857142857135	0	0	1
58	49	5.7142857142857135	0	0	1
57	58	5.7142857142857135	0	0	1
47	59	5.7142857142857135	0	0	1
60	56	5.7142857142857135	0	0	1
61	62	5.7142857142857135	0	0	1
63	61	5.7142857142857135	0	0	1
64	72	5.7142857142857135	0	0	1
66	65	5.7142857142857135	0	0	1
67	66	5.7142857142857135	0	0	1
69	71	5.7142857142857135	0	0	1
70	69	5.7142857142857135	0	0	1
62	70	5.7142857142857135	0	0	1
71	68	5.7142857142857135	0	0	1
72	63	5.7142857142857135	0	0	1
71	72	5.7142857142857135	0	0	1
61	73	5.7142857142857135	0	0	1
74	70	5.7142857142857135	0	0	1
75	76	5.7142857142857135	0	0	1
77	75	5.7142857142857135	0	0	1
78	86	5.7142857142857135	0	0	1
80	79	5.7142857142857135	0	0	1
81	80	5.7142857142857135	0	0	1
83	85	5.7142857142857135	0	0	1
84	83	5.7142857142857135	0	0	1
76	84	5.7142857142857135	0	0	1
85	82	5.7142857142857135	0	0	1
86	77	5.7142857142857135	0	0	1
85	86	5.7142857142857135	0	0	1
75	87	5.7142857142857135	0	0	1
88	84	5.7142857142857135	0	0	1
89	90	5.7142857142857135	0	0	1
91	89	5.7142857142857135	0	0	1
92	100	5.7142857142857135	0	0	1
94	93	5.7142857142857135	0	0	1
95	94	5.7142857142857135	0	0	1
97	99	5.7142857142857135	0	0	1
98	97	5.7142857142857135	0	0	1
90	98	5.7142857142857135	0	0	1
99	96	5.7142857142857135	0	0	1
100	91	5.7142857142857135	0	0	1
99	100	5.7142857142857135	0	0	1
89	101	5.7142857142857135	0	0	1
102	98	5.7142857142857135	0	0	1
103	104	5.7142857142857135	0	0	1
105	103	5.7142857142857135	0	0	1
106	114	5.7142857142857135	0	0	1
108	107	5.7142857142857135	0	0	1
109	108	5.7142857142857135	0	0	1
111	113	5.7142857142857135	0	0	1
112	111	5.7142857142857135	0	0	1
104	112	5.7142857142857135	0	0	1
113	110	5.7142857142857135	0	0	1
114	105	5.7142857142857135	0	0	1
113	114	5.7142857142857135	0	0	1
103	115	5.7142857142857135	0	0	1
116	112	5.7142857142857135	0	0	1
117	118	5.7142857142857135	0	0	1
119	120	5.7142857142857135	0	0	1
121	122	5.7142857142857135	0	0	1
123	124	5.7142857142857135	0	0	1
125	126	5.7142857142857135	0	0	1
127	30	0.5714285714285714	7	0	20
128	32	0.5714285714285714	7	0	20
129	24	0.5714285714285714	5	0	20
130	26	0.5714285714285714	5	0	20
[NumArcSegments] = 64
2	0	53.810406560505953	2.027708767390473	0	0	2	2.027708767390473
2	3	56.004581810045188	3.8474646422932821	0	0	2	3.8474646422932821
3	4	105.55330952820128	10	0	0	2	10
4	1	72.25251522226074	1.513502538417127	0	0	2	1.513502538417127
7	5	62.916172365604098	1.1978948394678726	0	0	2	1.1978948394678726
7	8	66.639213092297354	3.1379244903283321	0	0	2	3.1379244903283321
8	9	98.733556318617772	10	0	0	2	10
9	6	77.543402954688361	0.91297156362251952	0	0	2	0.91297156362251952
12	10	71.14509232411956	0.78363735318548289	0	0	2	0.78363735318548289
12	13	76.382554805279682	3.9124595867469414	0	0	2	3.9124595867469414
13	14	95.597021073543203	10	0	0	2	10
14	11	79.165516445300625	0.65077600760609366	0	0	2	0.65077600760609366
0	15	53.810406560505797	2.0277087673904548	0	0	2	2.0277087673904548
16	15	56.004581810045856	3.8474646422940304	0	0	2	3.8474646422940304
17	16	105.55330952819274	10	0	0	2	10
1	17	72.252515222260953	1.5135025384170573	0	0	2	1.5135025384170573
5	18	62.916172365604339	1.1978948394678224	0	0	2	1.1978948394678224
19	18	66.639213092296671	3.1379244903288859	0	0	2	3.1379244903288859
20	19	98.733556318619065	10	0	0	2	10
6	20	77.543402954688432	0.9129715636224961	0	0	2	0.9129715636224961
10	21	71.145092324119645	0.78363735318548888	0	0	2	0.78363735318548888
22	21	76.382554805278872	3.9124595867476555	0	0	2	3.9124595867476555
23	22	95.597021073541526	10	0	0	2	10
11	23	79.165516445300753	0.65077600760608489	0	0	2	0.65077600760608489
24	26	11.999999999999998	0.061658089333421914	0	0	2	0.061658089333421914
25	27	11.999999999999998	0.19098656833216884	0	0	2	0.19098656833216884
29	117	1.9999999999999998	5.7142857142857135	1	0	1	0.20000000000000001
30	46	0.69999999999999984	0.061565335532243387	0	0	1	0.061565335532243387
37	36	90.680010430283446	5.9266797471332291	0	0	1	5.9266797471332291
40	39	90.68001043028211	5.9266797471331225	0	0	1	5.9266797471331225
45	118	0.70000000000000029	0.061565335532243387	0	0	1	0.061565335532243387
46	45	0.59999999999999998	0.061565335532243387	0	0	1	0.061565335532243387
51	50	90.680010430283005	5.92667974713323	0	0	1	5.92667974713323
54	53	90.680010430281797	5.9266797471331234	0	0	1	5.9266797471331234
59	120	0.70000000000000084	0.061565335532243387	0	0	1	0.061565335532243387
60	59	0.59999999999999987	0.061565335532243387	0	0	1	0.061565335532243387
65	64	90.680010430283048	5.9266797471333019	0	0	1	5.9266797471333019
68	67	90.680010430282124	5.9266797471331234	0	0	1	5.9266797471331234
73	122	0.70000000000000118	0.061565335532243387	0	0	1	0.061565335532243387
74	73	0.60000000000000131	0.061565335532243387	0	0	1	0.061565335532243387
79	78	90.680010430283829	5.9266797471333028	0	0	1	5.9266797471333028
82	81	90.680010430282053	5.9266797471331216	0	0	1	5.9266797471331216
87	124	0.70000000000000251	0.061565335532243387	0	0	1	0.061565335532243387
88	87	0.59999999999999987	0.061565335532243387	0	0	1	0.061565335532243387
93	92	90.680010430283986	5.9266797471333321	0	0	1	5.9266797471333321
96	95	90.680010430282209	5.9266797471331314	0	0	1	5.9266797471331314
101	126	0.70000000000000084	0.061565335532243387	0	0	1	0.061565335532243387
102	101	0.59999999999999909	0.061565335532243387	0	0	1	0.061565335532243387
107	106	90.680010430283559	5.9266797471332024	0	0	1	5.9266797471332024
110	109	90.680010430282053	5.9266797471331243	0	0	1	5.9266797471331243
115	32	0.69999999999999607	0.061565335532243387	0	0	1	0.061565335532243387
116	115	0.60000000000000053	0.061565335532243387	0	0	1	0.061565335532243387
117	119	2	5.7142857142857135	1	0	1	0.40000000000000002
118	60	0.7000000000000004	0.061565335532243387	0	0	1	0.061565335532243387
119	121	2.0000000000000004	5.7142857142857135	1	0	1	0.40000000000000002
120	74	0.69999999999999996	0.061565335532243387	0	0	1	0.061565335532243387
121	123	2.0000000000000013	5.7142857142857135	1	0	1	0.33000000000000002
122	88	0.69999999999999984	0.061565335532243387	0	0	1	0.061565335532243387
123	125	2.0000000000000018	5.7142857142857135	1	0	1	0.40000000000000002
124	102	0.69999999999999762	0.061565335532243387	0	0	1	0.061565335532243387
125	31	1.9999999999999931	5.7142857142857135	1	0	1	0.17999999999999999
126	116	0.6999999999999974	0.061565335532243387	0	0	1	0.061565335532243387
127	128	12	0.5714285714285714	11	0	20	0.029000000000000001
129	130	12	0.5714285714285714	11	0	20	0.029000000000000001
[NumHoles] = 0
[NumBlockLabels] = 34
1304.4239993269975	182.23025117262995	7	5.7142857142857135	0	0	2	1	0
1296.997026431512	214.79423631629308	7	5.7142857142857135	0	0	2	1	0
1289.9984584299175	250.52436854607555	7	5.7142857142857135	0	0	2	1	0
1313.8070049207445	92.956916277713049	7	5.7142857142857135	0	0	2	1	0
1313.3127624132935	59.56037784674956	7	5.7142857142857135	0	0	2	1	0
1313.895842118998	23.155950625771709	7	5.7142857142857135	0	0	2	1	0
814.31831109663051	85.588303350648559	1	5.7142857142857135	0	0	22	1	0
213.11112434899044	22.398881751309119	7	5.7142857142857135	0	0	2	1	0
1369.637961330538	23.907119543176105	3	5.7142857142857135	1	0	1	1	0
1429.7870104902984	24.957025101630272	3	5.7142857142857135	1	0	1	1	0
1334.4304737305399	23.292570561158726	7	5.7142857142857135	0	0	10	1	0
1479.8620755047853	25.83108861274286	1	5.7142857142857135	0	0	12	1	0
1367.9692684512113	71.692231486974421	3	5.7142857142857135	1	0	1	1	0
1428.0450352598211	74.840669014139493	3	5.7142857142857135	1	0	1	1	0
1332.804675751556	69.849333274192844	7	5.7142857142857135	0	0	10	1	0
1478.0590915210603	77.461794635728126	1	5.7142857142857135	0	0	12	1	0
1364.6339157377888	119.38999749004753	3	5.7142857142857135	3	0	1	-1	0
1424.5632071273546	124.63313109977631	3	5.7142857142857135	3	0	1	-1	0
1329.5550605779906	116.32099533409735	7	5.7142857142857135	0	0	10	1	0
1474.4553202118664	128.99812539402453	1	5.7142857142857135	0	0	12	1	0
1359.6359668037803	166.94230517179832	3	5.7142857142857135	3	0	1	-1	0
1419.345768164143	174.27374691343013	3	5.7142857142857135	3	0	1	-1	0
1324.6855873653681	162.65093817906296	7	5.7142857142857135	0	0	10	1	0
1469.0551522174251	180.37729180716624	1	5.7142857142857135	0	0	12	1	0
1352.9815108800867	214.29121937018803	3	5.7142857142857135	2	0	1	1	0
1412.3990750158789	223.70203701128273	3	5.7142857142857135	2	0	1	1	0
1318.202188816713	208.78271591031378	7	5.7142857142857135	0	0	10	1	0
1461.8651668106061	231.53669627523271	1	5.7142857142857135	0	0	12	1	0
1344.6786553962106	261.37905272680706	3	5.7142857142857135	2	0	1	1	0
1403.731591158107	272.85778063569427	3	5.7142857142857135	2	0	1	1	0
1310.1127639544657	254.66012406273984	7	5.7142857142857135	0	0	10	1	0
1452.8941238810944	282.41400894438175	1	5.7142857142857135	0	0	12	1	0
1321.8853525936634	138.93574909325605	7	0.5714285714285714	0	0	20	1	0
1320.5593233998388	138.79637780889917	7	0.5714285714285714	0	0	20	1	0
