[Format]      =  4.0
[Frequency]   =  0
[Precision]   =  1e-008
[MinAngle]    =  15
[DoSmartMesh] =  1
[Depth]       =  300
[LengthUnits] =  millimeters
[ProblemType] =  planar
[Coordinates] =  cartesian
[ACSolver]    =  0
[PrevType]    =  0
[PrevSoln]    =  ""
[Comment]     =  "Add comments here."
[PointProps]   = 0
[BdryProps]   = 11
  <BeginBdry>
    <BdryName> = "A=0"
    <BdryType> = 0
    <A_0> = 0
    <A_1> = 0
    <A_2> = 0
    <Phi> = 0
    <c0> = 0
    <c0i> = 0
    <c1> = 0
    <c1i> = 0
    <Mu_ssd> = 0
    <Sigma_ssd> = 0
    <innerangle> = 0
    <outerangle> = 0
  <EndBdry>
  <BeginBdry>
    <BdryName> = "APr1"
    <BdryType> = 5
    <A_0> = 0
    <A_1> = 0
    <A_2> = 0
    <Phi> = 0
    <c0> = 0
    <c0i> = 0
    <c1> = 0
    <c1i> = 0
    <Mu_ssd> = 0
    <Sigma_ssd> = 0
    <innerangle> = 0
    <outerangle> = 0
  <EndBdry>
  <BeginBdry>
    <BdryName> = "APr2"
    <BdryType> = 5
    <A_0> = 0
    <A_1> = 0
    <A_2> = 0
    <Phi> = 0
    <c0> = 0
    <c0i> = 0
    <c1> = 0
    <c1i> = 0
    <Mu_ssd> = 0
    <Sigma_ssd> = 0
    <innerangle> = 0
    <outerangle> = 0
  <EndBdry>
  <BeginBdry>
    <BdryName> = "APr3"
    <BdryType> = 5
    <A_0> = 0
    <A_1> = 0
    <A_2> = 0
    <Phi> = 0
    <c0> = 0
    <c0i> = 0
    <c1> = 0
    <c1i> = 0
    <Mu_ssd> = 0
    <Sigma_ssd> = 0
    <innerangle> = 0
    <outerangle> = 0
  <EndBdry>
  <BeginBdry>
    <BdryName> = "APg1"
    <BdryType> = 5
    <A_0> = 0
    <A_1> = 0
    <A_2> = 0
    <Phi> = 0
    <c0> = 0
    <c0i> = 0
    <c1> = 0
    <c1i> = 0
    <Mu_ssd> = 0
    <Sigma_ssd> = 0
    <innerangle> = 0
    <outerangle> = 0
  <EndBdry>
  <BeginBdry>
    <BdryName> = "APg2"
    <BdryType> = 5
    <A_0> = 0
    <A_1> = 0
    <A_2> = 0
    <Phi> = 0
    <c0> = 0
    <c0i> = 0
    <c1> = 0
    <c1i> = 0
    <Mu_ssd> = 0
    <Sigma_ssd> = 0
    <innerangle> = 0
    <outerangle> = 0
  <EndBdry>
  <BeginBdry>
    <BdryName> = "APg3"
    <BdryType> = 5
    <A_0> = 0
    <A_1> = 0
    <A_2> = 0
    <Phi> = 0
    <c0> = 0
    <c0i> = 0
    <c1> = 0
    <c1i> = 0
    <Mu_ssd> = 0
    <Sigma_ssd> = 0
    <innerangle> = 0
    <outerangle> = 0
  <EndBdry>
  <BeginBdry>
    <BdryName> = "APs1"
    <BdryType> = 5
    <A_0> = 0
    <A_1> = 0
    <A_2> = 0
    <Phi> = 0
    <c0> = 0
    <c0i> = 0
    <c1> = 0
    <c1i> = 0
    <Mu_ssd> = 0
    <Sigma_ssd> = 0
    <innerangle> = 0
    <outerangle> = 0
  <EndBdry>
  <BeginBdry>
    <BdryName> = "APs2"
    <BdryType> = 5
    <A_0> = 0
    <A_1> = 0
    <A_2> = 0
    <Phi> = 0
    <c0> = 0
    <c0i> = 0
    <c1> = 0
    <c1i> = 0
    <Mu_ssd> = 0
    <Sigma_ssd> = 0
    <innerangle> = 0
    <outerangle> = 0
  <EndBdry>
  <BeginBdry>
    <BdryName> = "APs3"
    <BdryType> = 5
    <A_0> = 0
    <A_1> = 0
    <A_2> = 0
    <Phi> = 0
    <c0> = 0
    <c0i> = 0
    <c1> = 0
    <c1i> = 0
    <Mu_ssd> = 0
    <Sigma_ssd> = 0
    <innerangle> = 0
    <outerangle> = 0
  <EndBdry>
  <BeginBdry>
    <BdryName> = "AGap"
    <BdryType> = 7
    <A_0> = 0
    <A_1> = 0
    <A_2> = 0
    <Phi> = 0
    <c0> = 0
    <c0i> = 0
    <c1> = 0
    <c1i> = 0
    <Mu_ssd> = 0
    <Sigma_ssd> = 0
    <innerangle> = 1.25
    <outerangle> = 0
  <EndBdry>
[BlockProps]  = 7
  <BeginBlock>
    <BlockName> = "M600-50A"
    <Mu_x> = 1
    <Mu_y> = 1
    <H_c> = 0
    <H_cAngle> = 0
    <J_re> = 0
    <J_im> = 0
    <Sigma> = 0
    <d_lam> = 0
    <Phi_h> = 0
    <Phi_hx> = 0
    <Phi_hy> = 0
    <LamType> = 0
    <LamFill> = 1
    <NStrands> = 0
    <WireD> = 0
    <BHPoints> = 208
      0	0
      0.0061294119999999999	8.2635015680000006
      0.012398954	15.54584049
      0.018188152999999999	21.42337126
      0.023698273999999998	26.396066560000001
      0.028962854999999999	30.670770340000001
      0.034031080999999998	34.409892589999998
      0.038937833999999998	37.72521158
      0.043710287	40.697869570000002
      0.048369641999999997	43.388214720000001
      0.052932743999999997	45.842257519999997
      0.057413198999999998	48.095830579999998
      0.061822165999999998	50.17736026
      0.066168929000000001	52.109762629999999
      0.070461307000000001	53.911772880000001
      0.074705967999999998	55.598898519999999
      0.078908651999999996	57.184116670000002
      0.083074354000000003	58.67839326
      0.087207454000000004	60.091076020000003
      0.091311829999999997	61.430196219999999
      0.095390935999999996	62.702703470000003
      0.099447875000000005	63.914650479999999
      0.10348545000000001	65.071340269999993
      0.107506212	66.177444339999994
      0.111512495	67.237098649999993
      0.115506446	68.253982050000005
      0.119490053	69.231381029999994
      0.123465163	70.172243330000001
      0.127433505	71.079222909999999
      0.131396704	71.954717669999994
      0.13535628999999999	72.800901379999999
      0.139313718	73.619750830000001
      0.14327037200000001	74.413069070000006
      0.147227575	75.182505329999998
      0.151186599	75.929572239999999
      0.15514867099999999	76.655660710000006
      0.15911497799999999	77.362052919999996
      0.16308667299999999	78.049933670000001
      0.167064883	78.720400249999997
      0.171050709	79.374471249999999
      0.17504523399999999	80.013094219999999
      0.17904952399999999	80.637152520000001
      0.183064634	81.247471390000001
      0.18709161099999999	81.844823349999999
      0.19113149500000001	82.429933079999998
      0.19518532499999999	83.003481679999993
      0.19925414	83.566110629999997
      0.203338983	84.118425299999998
      0.20744090200000001	84.6609981
      0.21156095499999999	85.194371430000004
      0.21570021	85.719060249999998
      0.21985974999999999	86.23555451
      0.224040674	86.744321339999999
      0.228244101	87.245807119999995
      0.232471172	87.740439260000002
      0.23672305199999999	88.228628009999994
      0.241000933	88.710768049999999
      0.245306038	89.187239969999993
      0.249639624	89.658411700000002
      0.25400298399999999	90.124639849999994
      0.258397449	90.586270990000003
      0.26282439699999999	91.043642790000007
      0.267285249	91.497085290000001
      0.27178147899999999	91.946921900000007
      0.27631461499999999	92.393470609999994
      0.28088624499999998	92.837044969999994
      0.28549801899999999	93.277955219999996
      0.29015165799999998	93.716509279999997
      0.294848956	94.153013889999997
      0.299591787	94.587775629999996
      0.30438211199999998	95.021102040000002
      0.30922198299999998	95.45330276
      0.31411355600000002	95.884690719999995
      0.31905909100000002	96.315583349999997
      0.324060968	96.746303900000001
      0.32912169099999999	97.177182860000002
      0.33424390300000001	97.608559369999995
      0.33943039400000002	98.040782919999998
      0.34468411100000002	98.474215020000003
      0.35000818	98.909231149999997
      0.35540591100000002	99.346222819999994
      0.36088082199999999	99.785599880000007
      0.366436651	100.2277931
      0.37207738099999998	100.67325700000001
      0.37780725700000001	101.1224732
      0.38363081700000001	101.57595360000001
      0.389552911	102.03424510000001
      0.39557873700000001	102.4979336
      0.401713873	102.9676498
      0.40796431599999999	103.44407510000001
      0.41433652900000001	103.9279489
      0.420837509	104.4200783
      0.42747497499999998	104.9213567
      0.43425898400000001	105.43288579999999
      0.44146202099999998	105.9749185
      0.44856258700000001	106.5079061
      0.45587690400000003	107.05707719999999
      0.46342101400000002	107.62377619999999
      0.47120716099999999	108.2090887
      0.47924850299999999	108.8142005
      0.48755929799999997	109.4404164
      0.496155022	110.0891769
      0.50505251799999995	110.7620768
      0.51427015700000001	111.4608879
      0.52382802100000003	112.1875854
      0.53374812500000002	112.944379
      0.54405466000000002	113.73375040000001
      0.55477427700000004	114.558498
      0.56593642099999997	115.4217907
      0.57757370900000005	116.3272333
      0.58972237000000005	117.2789456
      0.60242275199999995	118.28165920000001
      0.61571989900000001	119.3408371
      0.62966422099999997	120.4628209
      0.64431222899999996	121.65501310000001
      0.65972736300000001	122.92610569999999
      0.67598086099999999	124.28636400000001
      0.69315263800000004	125.74798269999999
      0.71133206000000004	127.3255305
      0.73061842099999996	129.03650049999999
      0.75112078999999998	130.90198509999999
      0.772956635	132.94748089999999
      0.79624826999999998	135.20380520000001
      0.82111564500000001	137.70804709999999
      0.84766332799999999	140.50436830000001
      0.87595905799999996	143.6442744
      0.90600166900000001	147.18571779999999
      0.93767904199999996	151.19014369999999
      0.97072398500000001	155.71669249999999
      1.0046871660000001	160.81373919999999
      1.0389539999999999	166.5100477
      1.0728218	172.80985770000001
      1.1056189649999999	179.69557180000001
      1.1368151129999999	187.13741469999999
      1.166076154	195.10516089999999
      1.1932571599999999	203.57694960000001
      1.2183581130000001	212.54344710000001
      1.2414717689999999	222.00841339999999
      1.262740478	231.98749659999999
      1.2823264919999999	242.50660869999999
      1.3003940249999999	253.6005657
      1.317099609	265.31223169999998
      1.332587655	277.69219570000001
      1.346989049	290.79894300000001
      1.360421377	304.69948410000001
      1.3729899480000001	319.47042970000001
      1.3847891750000001	335.19953839999999
      1.395904035	351.98780690000001
      1.406411522	369.95222330000001
      1.416382027	389.22936779999998
      1.4258806550000001	409.98013700000001
      1.4349684949999999	432.3959911
      1.443703884	456.70731569999998
      1.452143746	483.19477810000001
      1.460345062	512.205018
      1.468366627	544.17275689999997
      1.476271267	579.65265699999998
      1.484128812	619.36640990000001
      1.4920203320000001	664.27439319999996
      1.5000444559999999	715.68841520000001
      1.5083273020000001	775.45608200000004
      1.517038858	846.27605440000002
      1.52642144	932.26565330000005
      1.5368418420000001	1040.044543
      1.5488919160000001	1180.938134
      1.5635876129999999	1375.704356
      1.5827254589999999	1664.518061
      1.609038255	2120.3213700000001
      1.6429877180000001	2803.4219309999999
      1.6763000130000001	3588.174364
      1.7038913950000001	4346.5592559999996
      1.7268422349999999	5076.0393119999999
      1.746445904	5791.6494789999997
      1.7635818270000001	6506.5344940000004
      1.778835427	7231.1495919999998
      1.792609184	7974.1327339999998
      1.805191346	8743.1111569999994
      1.8167966790000001	9545.295204
      1.8275911469999999	10387.927960000001
      1.837707435	11278.663500000001
      1.8472551399999999	12225.930109999999
      1.8563277979999999	13239.325269999999
      1.865008022	14330.08987
      1.873371527	15511.71947
      1.8814906259999999	16800.793989999998
      1.88943763	18218.15107
      1.8972886259999999	19790.607090000001
      1.905128269	21553.57647
      1.913056538	23555.22162
      1.921199232	25863.341659999998
      1.92972568	28577.465530000001
      1.938881257	31851.611560000001
      1.949053186	35941.14198
      1.960921235	41311.621829999996
      1.975868577	48939.738250000002
      1.9972472800000001	61282.289870000001
      2.0280781640000001	81252.957920000001
      2.0737002590000002	113566.1776
      2.1433819129999998	165850.06529999999
      2.250195926	248560.18210000001
      2.3541325240000002	331270.29889999999
      2.4580691219999999	413980.41570000001
      2.5620057200000002	496690.53249999997
      2.665942319	579400.64930000005
      2.7698789170000002	662110.76610000001
      2.873815515	744820.88289999997
      2.9777521130000002	827530.99970000004
      3.081688711	910241.1165
  <EndBlock>
  <BeginBlock>
    <BlockName> = "ShaftAir"
    <Mu_x> = 1
    <Mu_y> = 1
    <H_c> = 0
    <H_cAngle> = 0
    <J_re> = 0
    <J_im> = 0
    <Sigma> = 0
    <d_lam> = 0
    <Phi_h> = 0
    <Phi_hx> = 0
    <Phi_hy> = 0
    <LamType> = 0
    <LamFill> = 1
    <NStrands> = 0
    <WireD> = 0
    <BHPoints> = 3
      -100	-7.9577471545947675e-011
      0	0
      100	7.9577471545947675e-011
  <EndBlock>
  <BeginBlock>
    <BlockName> = "Copper"
    <Mu_x> = 1
    <Mu_y> = 1
    <H_c> = 0
    <H_cAngle> = 0
    <J_re> = 0
    <J_im> = 0
    <Sigma> = 58
    <d_lam> = 0
    <Phi_h> = 0
    <Phi_hx> = 0
    <Phi_hy> = 0
    <LamType> = 0
    <LamFill> = 1
    <NStrands> = 0
    <WireD> = 0
    <BHPoints> = 0
  <EndBlock>
  <BeginBlock>
    <BlockName> = "Aluminium"
    <Mu_x> = 1
    <Mu_y> = 1
    <H_c> = 0
    <H_cAngle> = 0
    <J_re> = 0
    <J_im> = 0
    <Sigma> = 29
    <d_lam> = 0
    <Phi_h> = 0
    <Phi_hx> = 0
    <Phi_hy> = 0
    <LamType> = 0
    <LamFill> = 1
    <NStrands> = 0
    <WireD> = 0
    <BHPoints> = 0
  <EndBlock>
  <BeginBlock>
    <BlockName> = "Air"
    <Mu_x> = 1
    <Mu_y> = 1
    <H_c> = 0
    <H_cAngle> = 0
    <J_re> = 0
    <J_im> = 0
    <Sigma> = 0
    <d_lam> = 0
    <Phi_h> = 0
    <Phi_hx> = 0
    <Phi_hy> = 0
    <LamType> = 0
    <LamFill> = 1
    <NStrands> = 0
    <WireD> = 0
    <BHPoints> = 0
  <EndBlock>
  <BeginBlock>
    <BlockName> = "DW235"
    <Mu_x> = 1
    <Mu_y> = 1
    <H_c> = 0
    <H_cAngle> = 0
    <J_re> = 0
    <J_im> = 0
    <Sigma> = 0
    <d_lam> = 0
    <Phi_h> = 0
    <Phi_hx> = 0
    <Phi_hy> = 0
    <LamType> = 0
    <LamFill> = 1
    <NStrands> = 0
    <WireD> = 0
    <BHPoints> = 0
  <EndBlock>
  <BeginBlock>
    <BlockName> = "Air"
    <Mu_x> = 1
    <Mu_y> = 1
    <H_c> = 0
    <H_cAngle> = 0
    <J_re> = 0
    <J_im> = 0
    <Sigma> = 0
    <d_lam> = 0
    <Phi_h> = 0
    <Phi_hx> = 0
    <Phi_hy> = 0
    <LamType> = 0
    <LamFill> = 1
    <NStrands> = 0
    <WireD> = 0
    <BHPoints> = 0
  <EndBlock>
[CircuitProps]  = 6
  <BeginCircuit>
    <CircuitName> = "fase1"
    <TotalAmps_re> = 1411.556262701243
    <TotalAmps_im> = 0
    <CircuitType> = 1
  <EndCircuit>
  <BeginCircuit>
    <CircuitName> = "fase2"
    <TotalAmps_re> = -472.01749873718461
    <TotalAmps_im> = -0
    <CircuitType> = 1
  <EndCircuit>
  <BeginCircuit>
    <CircuitName> = "fase3"
    <TotalAmps_re> = -939.53876396405769
    <TotalAmps_im> = -0
    <CircuitType> = 1
  <EndCircuit>
  <BeginCircuit>
    <CircuitName> = "fase1n"
    <TotalAmps_re> = -1411.556262701243
    <TotalAmps_im> = -0
    <CircuitType> = 1
  <EndCircuit>
  <BeginCircuit>
    <CircuitName> = "fase2n"
    <TotalAmps_re> = 472.01749873718461
    <TotalAmps_im> = 0
    <CircuitType> = 1
  <EndCircuit>
  <BeginCircuit>
    <CircuitName> = "fase3n"
    <TotalAmps_re> = 939.53876396405769
    <TotalAmps_im> = 0
    <CircuitType> = 1
  <EndCircuit>
[NumPoints] = 141
1446.8901651200074	56.848469415909889	0	2
1433.45253305386	56.32050341410126	0	2
1446.1247471905431	76.328017288008766	0	2
1446.110053417555	76.703638105069416	0	2
1446.0074308252626	76.793578365865258	0	2
1432.6893259718508	75.745420782232728	0	2
1430.5524327701901	56.206558163622901	0	2
1419.1860478973233	55.759971685677606	0	2
1429.6553852200113	79.014996774032511	0	2
1434.7162122299799	79.41417387218614	0	2
1445.2459888071483	91.551988130927981	0	2
1445.1399626719897	91.643952912969624	0	2
1417.8605158989656	89.497013890701282	0	2
1414.2147004203725	55.564646911335899	0	2
1404.9137215971346	55.199210458094818	0	2
1412.6926278302662	94.303981212696982	0	2
1435.7506613246298	96.118687804722626	0	2
1444.2563799865752	106.02473089779627	0	2
1444.1499993873779	106.11735631483243	0	2
1403.0409786649593	102.8812904910106	0	2
1447.6555830494717	37.368921543811027	0	2
1447.6702768224598	36.993300726750356	0	2
1447.5750272129023	36.895586045969992	0	2
1434.2157401358691	36.895586045969793	0	2
1431.4494803203688	33.398119553213292	0	2
1436.5260255637877	33.398998210754769	0	2
1447.9738639509594	22.122929480652267	0	2
1447.8753801326291	22.022929480653929	0	2
1420.5115798956811	22.022929480653929	0	2
1415.7367730104788	16.825312609974816	0	2
1438.8661065210306	16.825312609974816	0	2
1448.1228240743053	7.6171575365140711	0	2
1448.0226586585361	7.5178439459101867	0	2
1406.7864645293098	7.5171304251790261	0	2
1455	0	0	20
1300	0	0	2
1450.5147205817011	114.15798428401439	0	20
1295.9925338530663	101.99682444619843	0	2
0	0	0	2
1500	0	0	1
1456	0	0	20
1495.3760005996919	117.68864359176742	0	1
1451.5116379154342	114.23644337974224	0	20
1466.2327912986673	12.45551691899842	0	1
1466.2515022780676	9.5967306729472384	0	1
1467.3111638665825	14.808174202729091	0	1
1480.0144598418469	14.974469456386203	0	1
1480.8340798101769	14.172221972963353	0	1
1480.8714065194767	9.6924190887825148	0	1
1480.89272181604	5.2125114086539917	0	1
1480.0836731616473	4.3996041618116566	0	1
1467.3792887709512	4.3996041618116548	0	1
1466.270213257468	6.7379444268960569	0	1
1473.5910537435329	4.3996041618116575	0	1
1473.5223966621893	14.889483694004428	0	1
1455.9472973158363	12.388197557048516	0	1
1455.984719274637	6.6706250649461527	0	1
1465.9441378992644	31.646844076190007	0	1
1466.0002676314357	28.788547668445013	0	1
1466.9916227480237	34.013415262852888	0	1
1479.6916536634878	34.345977276331489	0	1
1480.5217045080931	33.554527017304423	0	1
1480.6176668275166	29.075596520233393	0	1
1480.6976204776763	24.596351653275544	0	1
1479.8992817635428	23.772923930485614	0	1
1467.1959857882782	23.6066286768285	0	1
1466.0563973636067	25.930251260700018	0	1
1473.407218583885	23.687938168103841	0	1
1473.2012591038915	34.176020313440816	0	1
1455.6604062828778	31.4448975251664	0	1
1455.7726657472197	25.728304709676415	0	1
1465.4043025185338	50.832748709567525	0	1
1465.4978413859349	47.975431894503643	0	1
1466.4207201670006	53.212828299372937	0	1
1479.1153099377475	53.711600089884051	0	1
1479.9556494336882	52.931082666180259	0	1
1480.1102309205858	48.453791997902101	0	1
1480.2488092246961	43.975977439663673	0	1
1479.4613172420504	43.142170331027422	0	1
1466.7612863265861	42.809608317548822	0	1
1465.5913802533362	45.118115079439754	0	1
1472.9709226824539	42.97221336813675	0	1
1472.6276960939072	53.456701047735123	0	1
1455.1240953330625	50.496209571972116	0	1
1455.311173067865	44.781575941844338	0	1
1464.6133776544884	70.009943413141386	0	1
1464.7443096297163	67.154095777285363	0	1
1465.5985539447313	72.403123591704286	0	1
1478.2855274181552	73.068019697269293	0	1
1479.1360115775858	72.298568846531211	0	1
1479.3491857452152	67.823685167752785	0	1
1479.5463649585968	63.348068168706476	0	1
1478.7698546401366	62.504024542779533	0	1
1466.0752648693897	62.005252752268419	0	1
1464.8752416049442	64.298248141429326	0	1
1472.2822407962963	62.249125500630612	0	1
1471.8018059093051	72.728222251500767	0	1
1454.3384563605116	69.538869353222893	0	1
1454.6003203109674	63.827174081510833	0	1
1463.5714988280324	89.175142273323559	0	1
1463.739801476567	86.321253151465854	0	1
1464.5252649551655	91.581012981540482	0	1
1477.2024482836748	92.411919475634562	0	1
1478.0629313805121	91.653667039304352	0	1
1478.3346617025775	87.181957098307237	0	1
1478.5904080395874	82.709304532385303	0	1
1477.8250124363578	81.855169011697811	0	1
1465.1380389629337	81.190272906132805	0	1
1463.9081041251015	83.467364029608149	0	1
1471.3412909275078	81.515371565929286	0	1
1470.7237300621173	91.987281848789507	0	1
1453.303623980418	88.569614007197032	0	1
1453.6402292774876	82.861835763481622	0	1
1462.2788445597387	108.32506143195209	0	1
1462.4844890437878	105.47361982330187	0	1
1463.2010371008466	110.74321043626264	0	1
1475.8662581143399	111.73998494733559	0	1
1476.7365927092353	110.99306084806467	0	1
1477.0668326261448	106.52529084932686	0	1
1477.3811022659645	102.05636908252116	0	1
1476.6269525245621	101.19228801879751	0	1
1463.9497691960528	100.3613815247034	0	1
1462.6901335278367	102.62217821465165	0	1
1470.1482343030043	100.76765039195243	0	1
1469.3936532750895	111.2305798988853	0	1
1452.019775505983	107.5851827137687	0	1
1452.431064474081	101.88229949646826	0	1
1499.8714913610106	19.634393357016659	0	1
1455.8752609477542	19.058451151877502	0	1
1499.485987463336	39.26542246180972	0	1
1455.5010651644113	38.113636736263302	0	1
1498.8435543610844	58.889723638602916	0	1
1454.8774767664925	57.162291745203895	0	1
1497.9443021318607	78.503934364415755	0	1
1454.0046026026596	76.201152289726224	0	1
1496.7883848579052	98.104693845214598	0	1
1452.8825922354067	95.226956159088303	0	1
1455.6666666666667	0	0	20
1451.1793321375233	114.21029034783297	0	20
1455.3333333333333	0	0	20
1450.8470263596121	114.18413731592366	0	20
[NumSegments] = 118
0	1	2.1428571428571428	0	0	2
2	0	2.1428571428571428	0	0	2
5	4	2.1428571428571428	0	0	2
1	5	2.1428571428571428	0	0	2
6	7	2.1428571428571428	0	0	2
8	6	2.1428571428571428	0	0	2
9	8	2.1428571428571428	0	0	2
12	11	2.1428571428571428	0	0	2
7	12	2.1428571428571428	0	0	2
13	14	2.1428571428571428	0	0	2
15	13	2.1428571428571428	0	0	2
16	15	2.1428571428571428	0	0	2
19	18	2.1428571428571428	0	0	2
14	19	2.1428571428571428	0	0	2
20	0	2.1428571428571428	0	0	2
23	22	2.1428571428571428	0	0	2
1	23	2.1428571428571428	0	0	2
24	6	2.1428571428571428	0	0	2
25	24	2.1428571428571428	0	0	2
28	27	2.1428571428571428	0	0	2
7	28	2.1428571428571428	0	0	2
29	13	2.1428571428571428	0	0	2
30	29	2.1428571428571428	0	0	2
33	32	2.1428571428571428	0	0	2
14	33	2.1428571428571428	0	0	2
34	35	-1	3	0	2
37	36	-1	3	0	2
35	38	-1	2	0	2
38	37	-1	2	0	2
39	40	-1	10	0	1
42	41	-1	10	0	1
43	44	2.1428571428571428	0	0	1
45	43	2.1428571428571428	0	0	1
46	54	2.1428571428571428	0	0	1
48	47	2.1428571428571428	0	0	1
49	48	2.1428571428571428	0	0	1
51	53	2.1428571428571428	0	0	1
52	51	2.1428571428571428	0	0	1
44	52	2.1428571428571428	0	0	1
53	50	2.1428571428571428	0	0	1
54	45	2.1428571428571428	0	0	1
53	54	2.1428571428571428	0	0	1
43	55	2.1428571428571428	0	0	1
56	52	2.1428571428571428	0	0	1
57	58	2.1428571428571428	0	0	1
59	57	2.1428571428571428	0	0	1
60	68	2.1428571428571428	0	0	1
62	61	2.1428571428571428	0	0	1
63	62	2.1428571428571428	0	0	1
65	67	2.1428571428571428	0	0	1
66	65	2.1428571428571428	0	0	1
58	66	2.1428571428571428	0	0	1
67	64	2.1428571428571428	0	0	1
68	59	2.1428571428571428	0	0	1
67	68	2.1428571428571428	0	0	1
57	69	2.1428571428571428	0	0	1
70	66	2.1428571428571428	0	0	1
71	72	2.1428571428571428	0	0	1
73	71	2.1428571428571428	0	0	1
74	82	2.1428571428571428	0	0	1
76	75	2.1428571428571428	0	0	1
77	76	2.1428571428571428	0	0	1
79	81	2.1428571428571428	0	0	1
80	79	2.1428571428571428	0	0	1
72	80	2.1428571428571428	0	0	1
81	78	2.1428571428571428	0	0	1
82	73	2.1428571428571428	0	0	1
81	82	2.1428571428571428	0	0	1
71	83	2.1428571428571428	0	0	1
84	80	2.1428571428571428	0	0	1
85	86	2.1428571428571428	0	0	1
87	85	2.1428571428571428	0	0	1
88	96	2.1428571428571428	0	0	1
90	89	2.1428571428571428	0	0	1
91	90	2.1428571428571428	0	0	1
93	95	2.1428571428571428	0	0	1
94	93	2.1428571428571428	0	0	1
86	94	2.1428571428571428	0	0	1
95	92	2.1428571428571428	0	0	1
96	87	2.1428571428571428	0	0	1
95	96	2.1428571428571428	0	0	1
85	97	2.1428571428571428	0	0	1
98	94	2.1428571428571428	0	0	1
99	100	2.1428571428571428	0	0	1
101	99	2.1428571428571428	0	0	1
102	110	2.1428571428571428	0	0	1
104	103	2.1428571428571428	0	0	1
105	104	2.1428571428571428	0	0	1
107	109	2.1428571428571428	0	0	1
108	107	2.1428571428571428	0	0	1
100	108	2.1428571428571428	0	0	1
109	106	2.1428571428571428	0	0	1
110	101	2.1428571428571428	0	0	1
109	110	2.1428571428571428	0	0	1
99	111	2.1428571428571428	0	0	1
112	108	2.1428571428571428	0	0	1
113	114	2.1428571428571428	0	0	1
115	113	2.1428571428571428	0	0	1
116	124	2.1428571428571428	0	0	1
118	117	2.1428571428571428	0	0	1
119	118	2.1428571428571428	0	0	1
121	123	2.1428571428571428	0	0	1
122	121	2.1428571428571428	0	0	1
114	122	2.1428571428571428	0	0	1
123	120	2.1428571428571428	0	0	1
124	115	2.1428571428571428	0	0	1
123	124	2.1428571428571428	0	0	1
113	125	2.1428571428571428	0	0	1
126	122	2.1428571428571428	0	0	1
127	128	2.1428571428571428	0	0	1
129	130	2.1428571428571428	0	0	1
131	132	2.1428571428571428	0	0	1
133	134	2.1428571428571428	0	0	1
135	136	2.1428571428571428	0	0	1
137	40	0.21428571428571427	7	0	20
138	42	0.21428571428571427	7	0	20
139	34	0.21428571428571427	5	0	20
140	36	0.21428571428571427	5	0	20
[NumArcSegments] = 52
2	3	1.5724012731543437	2.2407906997274032	0	0	2	2.2407906997274032
3	4	91.463799364797225	10	0	0	2	10
9	10	89.124672133009568	2.6806958209260343	0	0	2	2.6806958209260343
10	11	90.875327867110713	10	0	0	2	10
16	17	89.698625733597837	3.3158344529752033	0	0	2	3.3158344529752033
17	18	90.301374225737973	10	0	0	2	10
21	20	1.572401273154721	2.240790699729355	0	0	2	2.240790699729355
22	21	91.463799364999232	10	0	0	2	10
26	25	89.124672133008204	2.6806958209276126	0	0	2	2.6806958209276126
27	26	90.875327866989565	10	0	0	2	10
31	30	89.698625733599741	3.3158344529763824	0	0	2	3.3158344529763824
32	31	90.301374307107579	10	0	0	2	10
34	36	4.5000000000000009	0.021095647832504536	0	0	2	0.021095647832504536
35	37	4.5000000000000009	0.023610898150995461	0	0	2	0.023610898150995461
39	127	0.75	2.1428571428571428	1	0	1	0.074999999999999997
40	56	0.26249999999999996	0.021081159063388807	0	0	1	0.021081159063388807
47	46	90.272609933440648	10	0	0	1	10
50	49	90.272609933429592	10	0	0	1	10
55	128	0.26249999999999996	0.021081159063388807	0	0	1	0.021081159063388807
56	55	0.22500000000000003	0.021081159063388807	0	0	1	0.021081159063388807
61	60	90.272609933444897	10	0	0	1	10
64	63	90.272609933434651	10	0	0	1	10
69	130	0.26250000000000001	0.021081159063388807	0	0	1	0.021081159063388807
70	69	0.22499999999999998	0.021081159063388807	0	0	1	0.021081159063388807
75	74	90.272609933427361	10	0	0	1	10
78	77	90.272609933430715	10	0	0	1	10
83	132	0.26250000000000023	0.021081159063388807	0	0	1	0.021081159063388807
84	83	0.22500000000000059	0.021081159063388807	0	0	1	0.021081159063388807
89	88	90.27260993344558	10	0	0	1	10
92	91	90.272609933415822	10	0	0	1	10
97	134	0.26249999999999946	0.021081159063388807	0	0	1	0.021081159063388807
98	97	0.2250000000000002	0.021081159063388807	0	0	1	0.021081159063388807
103	102	90.272609933449033	10	0	0	1	10
106	105	90.272609933431781	10	0	0	1	10
111	136	0.26250000000000018	0.021081159063388807	0	0	1	0.021081159063388807
112	111	0.22500000000000031	0.021081159063388807	0	0	1	0.021081159063388807
117	116	90.272609933439341	10	0	0	1	10
120	119	90.272609933424434	10	0	0	1	10
125	42	0.26250000000000023	0.021081159063388807	0	0	1	0.021081159063388807
126	125	0.22499999999999987	0.021081159063388807	0	0	1	0.021081159063388807
127	129	0.74999999999999967	2.1428571428571428	1	0	1	0.12
128	70	0.2625000000000004	0.021081159063388807	0	0	1	0.021081159063388807
129	131	0.75000000000000044	2.1428571428571428	1	0	1	0.13
130	84	0.26249999999999957	0.021081159063388807	0	0	1	0.021081159063388807
131	133	0.75000000000000044	2.1428571428571428	1	0	1	0.13
132	98	0.26250000000000012	0.021081159063388807	0	0	1	0.021081159063388807
133	135	0.75000000000000044	2.1428571428571428	1	0	1	0.13
134	112	0.26249999999999851	0.021081159063388807	0	0	1	0.021081159063388807
135	41	0.75000000000000089	2.1428571428571428	1	0	1	0.068000000000000005
136	126	0.2625000000000009	0.021081159063388807	0	0	1	0.021081159063388807
137	138	4.5	0.21428571428571427	11	0	20	0.012999999999999999
139	140	4.5	0.21428571428571427	11	0	20	0.012999999999999999
[NumHoles] = 0
[NumBlockLabels] = 34
1446.0807866843422	76.608412937474625	7	2.1428571428571428	0	0	2	1	0
1441.7013673067563	87.536144584508094	7	2.1428571428571428	0	0	2	1	0
1441.3852575346823	102.75309938410633	7	2.1428571428571428	0	0	2	1	0
1447.633586155056	37.085934421016987	7	2.1428571428571428	0	0	2	1	0
1444.1244897711924	25.847676373890149	7	2.1428571428571428	0	0	2	1	0
1445.0043231042634	10.652980424533119	7	2.1428571428571428	0	0	2	1	0
1351.9557343550373	53.118485472442003	1	2.1428571428571428	0	0	22	1	0
649.4988735564699	25.518880243394598	7	2.1428571428571428	0	0	2	1	0
1469.9041137404643	9.6206373004276404	3	2.1428571428571428	1	0	1	1	0
1477.2093366652575	9.6684505553884428	3	2.1428571428571428	1	0	1	1	0
1461.1101585905199	9.5630801767057729	7	2.1428571428571428	0	0	10	1	0
1490.4196395078352	9.7549130199051497	1	2.1428571428571428	0	0	12	1	0
1469.6522532376619	28.86026345460867	3	2.1428571428571428	1	0	1	1	0
1476.9562244501144	29.003695026935983	3	2.1428571428571428	1	0	1	1	0
1460.8598048866611	28.687601945559909	7	2.1428571428571428	0	0	10	1	0
1490.1642637753066	29.263067605587921	1	2.1428571428571428	0	0	12	1	0
1469.1485753870577	48.09494455121979	3	2.1428571428571428	3	0	1	-1	0
1476.4500433893031	48.333969864652083	3	2.1428571428571428	3	0	1	-1	0
1460.3591403757616	47.807208241504853	7	2.1428571428571428	0	0	10	1	0
1489.653556067567	48.766208115283149	1	2.1428571428571428	0	0	12	1	0
1468.3931664912584	67.321384826675512	3	2.1428571428571428	3	0	1	-1	0
1475.6908802143425	67.655962925455839	3	2.1428571428571428	3	0	1	-1	0
1459.6082508441084	66.918623018429798	7	2.1428571428571428	0	0	10	1	0
1488.8876038917524	68.260992786266968	1	2.1428571428571428	0	0	12	1	0
1467.3861559856896	86.536289929412618	3	2.1428571428571428	2	0	1	1	0
1474.6788650039348	86.966363485306147	3	2.1428571428571428	2	0	1	1	0
1458.6072649527566	86.018571633798544	7	2.1428571428571428	0	0	10	1	0
1487.8665384898256	87.744081287545384	1	2.1428571428571428	0	0	12	1	0
1466.1277164164171	105.73636748436036	3	2.1428571428571428	2	0	1	1	0
1473.4141711616762	106.26186280647734	3	2.1428571428571428	2	0	1	1	0
1457.3563542154859	105.10378140974265	7	2.1428571428571428	0	0	10	1	0
1486.5905348160861	107.21213529220297	1	2.1428571428571428	0	0	12	1	0
1454.7109385937856	57.155748442577384	7	0.21428571428571427	0	0	20	1	0
1454.0447859029587	57.129575232071339	7	0.21428571428571427	0	0	20	1	0
