[Format]      =  4.0
[Frequency]   =  0
[Precision]   =  1e-008
[MinAngle]    =  15
[DoSmartMesh] =  1
[Depth]       =  300
[LengthUnits] =  millimeters
[ProblemType] =  planar
[Coordinates] =  cartesian
[ACSolver]    =  0
[PrevType]    =  0
[PrevSoln]    =  ""
[Comment]     =  "Add comments here."
[PointProps]   = 0
[BdryProps]   = 11
  <BeginBdry>
    <BdryName> = "A=0"
    <BdryType> = 0
    <A_0> = 0
    <A_1> = 0
    <A_2> = 0
    <Phi> = 0
    <c0> = 0
    <c0i> = 0
    <c1> = 0
    <c1i> = 0
    <Mu_ssd> = 0
    <Sigma_ssd> = 0
    <innerangle> = 0
    <outerangle> = 0
  <EndBdry>
  <BeginBdry>
    <BdryName> = "APr1"
    <BdryType> = 5
    <A_0> = 0
    <A_1> = 0
    <A_2> = 0
    <Phi> = 0
    <c0> = 0
    <c0i> = 0
    <c1> = 0
    <c1i> = 0
    <Mu_ssd> = 0
    <Sigma_ssd> = 0
    <innerangle> = 0
    <outerangle> = 0
  <EndBdry>
  <BeginBdry>
    <BdryName> = "APr2"
    <BdryType> = 5
    <A_0> = 0
    <A_1> = 0
    <A_2> = 0
    <Phi> = 0
    <c0> = 0
    <c0i> = 0
    <c1> = 0
    <c1i> = 0
    <Mu_ssd> = 0
    <Sigma_ssd> = 0
    <innerangle> = 0
    <outerangle> = 0
  <EndBdry>
  <BeginBdry>
    <BdryName> = "APr3"
    <BdryType> = 5
    <A_0> = 0
    <A_1> = 0
    <A_2> = 0
    <Phi> = 0
    <c0> = 0
    <c0i> = 0
    <c1> = 0
    <c1i> = 0
    <Mu_ssd> = 0
    <Sigma_ssd> = 0
    <innerangle> = 0
    <outerangle> = 0
  <EndBdry>
  <BeginBdry>
    <BdryName> = "APg1"
    <BdryType> = 5
    <A_0> = 0
    <A_1> = 0
    <A_2> = 0
    <Phi> = 0
    <c0> = 0
    <c0i> = 0
    <c1> = 0
    <c1i> = 0
    <Mu_ssd> = 0
    <Sigma_ssd> = 0
    <innerangle> = 0
    <outerangle> = 0
  <EndBdry>
  <BeginBdry>
    <BdryName> = "APg2"
    <BdryType> = 5
    <A_0> = 0
    <A_1> = 0
    <A_2> = 0
    <Phi> = 0
    <c0> = 0
    <c0i> = 0
    <c1> = 0
    <c1i> = 0
    <Mu_ssd> = 0
    <Sigma_ssd> = 0
    <innerangle> = 0
    <outerangle> = 0
  <EndBdry>
  <BeginBdry>
    <BdryName> = "APg3"
    <BdryType> = 5
    <A_0> = 0
    <A_1> = 0
    <A_2> = 0
    <Phi> = 0
    <c0> = 0
    <c0i> = 0
    <c1> = 0
    <c1i> = 0
    <Mu_ssd> = 0
    <Sigma_ssd> = 0
    <innerangle> = 0
    <outerangle> = 0
  <EndBdry>
  <BeginBdry>
    <BdryName> = "APs1"
    <BdryType> = 5
    <A_0> = 0
    <A_1> = 0
    <A_2> = 0
    <Phi> = 0
    <c0> = 0
    <c0i> = 0
    <c1> = 0
    <c1i> = 0
    <Mu_ssd> = 0
    <Sigma_ssd> = 0
    <innerangle> = 0
    <outerangle> = 0
  <EndBdry>
  <BeginBdry>
    <BdryName> = "APs2"
    <BdryType> = 5
    <A_0> = 0
    <A_1> = 0
    <A_2> = 0
    <Phi> = 0
    <c0> = 0
    <c0i> = 0
    <c1> = 0
    <c1i> = 0
    <Mu_ssd> = 0
    <Sigma_ssd> = 0
    <innerangle> = 0
    <outerangle> = 0
  <EndBdry>
  <BeginBdry>
    <BdryName> = "APs3"
    <BdryType> = 5
    <A_0> = 0
    <A_1> = 0
    <A_2> = 0
    <Phi> = 0
    <c0> = 0
    <c0i> = 0
    <c1> = 0
    <c1i> = 0
    <Mu_ssd> = 0
    <Sigma_ssd> = 0
    <innerangle> = 0
    <outerangle> = 0
  <EndBdry>
  <BeginBdry>
    <BdryName> = "AGap"
    <BdryType> = 7
    <A_0> = 0
    <A_1> = 0
    <A_2> = 0
    <Phi> = 0
    <c0> = 0
    <c0i> = 0
    <c1> = 0
    <c1i> = 0
    <Mu_ssd> = 0
    <Sigma_ssd> = 0
    <innerangle> = 1.1200000000000001
    <outerangle> = 0
  <EndBdry>
[BlockProps]  = 9
  <BeginBlock>
    <BlockName> = "M270-35A"
    <Mu_x> = 1
    <Mu_y> = 1
    <H_c> = 0
    <H_cAngle> = 0
    <J_re> = 0
    <J_im> = 0
    <Sigma> = 0
    <d_lam> = 0
    <Phi_h> = 0
    <Phi_hx> = 0
    <Phi_hy> = 0
    <LamType> = 0
    <LamFill> = 1
    <NStrands> = 0
    <WireD> = 0
    <BHPoints> = 200
      0	0
      0.0045422769999999999	3.2767874890000002
      0.0090353559999999996	6.114592773
      0.013222249	8.4602422570000009
      0.017196487	10.462328400000001
      0.020991169	12.199266809999999
      0.024640190999999999	13.72982376
      0.028168996000000002	15.09561901
      0.031597466999999997	16.327217480000002
      0.034941272000000002	17.447599879999999
      0.038212956999999999	18.47443998
      0.041422729999999998	19.421601849999998
      0.044579012000000001	20.300151339999999
      0.047688851999999997	21.119056130000001
      0.050758219	21.885681389999998
      0.053792226999999998	22.60614816
      0.056795300999999999	23.285597330000002
      0.059771310000000001	23.928387470000001
      0.062723663999999998	24.538245379999999
      0.065655396000000005	25.11838217
      0.068569221	25.67158405
      0.071467592999999996	26.200284
      0.074352739000000001	26.70661905
      0.077226698999999996	27.19247648
      0.080091349000000006	27.65953137
      0.082948429000000004	28.109277410000001
      0.085799557999999998	28.54305239
      0.088646256000000007	28.96205934
      0.091489953999999998	29.36738437
      0.094332005999999996	29.760011540000001
      0.097173704999999999	30.140835630000002
      0.100016285	30.510672870000001
      0.102860934	30.870270300000001
      0.105708802	31.220313650000001
      0.108561001	31.561434299999998
      0.11141862	31.894215259999999
      0.114282722	32.21919639
      0.117154355	32.536878999999999
      0.120034552	32.847729870000002
      0.12292433699999999	33.152184810000001
      0.12582473199999999	33.45065185
      0.12873675200000001	33.743513989999997
      0.13166142	34.031131799999997
      0.13459976100000001	34.313845620000002
      0.137552811	34.591977620000002
      0.14052161499999999	34.865833639999998
      0.14350723800000001	35.135704879999999
      0.14651076099999999	35.401869419999997
      0.14953328699999999	35.664593680000003
      0.15257594699999999	35.924133650000002
      0.155639899	36.180736189999998
      0.158726334	36.434640119999997
      0.161836481	36.686077320000003
      0.16497160599999999	36.93527375
      0.16813302299999999	37.182450420000002
      0.17132209400000001	37.427824389999998
      0.17454023399999999	37.671609650000001
      0.17778891699999999	37.914018050000003
      0.18106968000000001	38.155260249999998
      0.18438413100000001	38.395546590000002
      0.18773395400000001	38.635088090000004
      0.191120915	38.87409736
      0.19454686800000001	39.112789630000002
      0.19801376800000001	39.351383830000003
      0.20152367299999999	39.590103640000002
      0.20507876	39.829178749999997
      0.208681327	40.068846100000002
      0.21233381500000001	40.309351300000003
      0.216038808	40.550950149999998
      0.21979905799999999	40.793910310000001
      0.22361749	41.038513199999997
      0.227497227	41.285056060000002
      0.2314416	41.53385428
      0.23545417299999999	41.785244059999997
      0.23953876299999999	42.039585369999998
      0.24369946200000001	42.297265359999997
      0.247940667	42.558702250000003
      0.25226710400000002	42.824349750000003
      0.25668386300000001	43.0947022
      0.26119642799999998	43.370300520000001
      0.26581071499999998	43.651739030000002
      0.27054201700000002	43.94020278
      0.275438138	44.23873004
      0.28051031599999998	44.548036490000001
      0.28576849199999999	44.868763260000001
      0.29122336399999998	45.201605100000002
      0.296886504	45.547319020000003
      0.30277045699999999	45.906731970000003
      0.30888884599999999	46.280749559999997
      0.31525650100000002	46.670366299999998
      0.321889598	47.076677459999999
      0.328805825	47.50089294
      0.33602457000000002	47.944353649999996
      0.34356714500000002	48.408550759999997
      0.351457032	48.895148689999999
      0.35972019	49.406012390000001
      0.36838539799999998	49.943240269999997
      0.37748466600000002	50.509203810000002
      0.38705371900000002	51.106595769999998
      0.39713256899999999	51.738489119999997
      0.40776619800000002	52.408409570000003
      0.41900536300000002	53.120425429999997
      0.43090757000000002	53.879259759999997
      0.44353822799999998	54.690431349999997
      0.45697202599999998	55.560433060000001
      0.47129457299999999	56.49695913
      0.486604327	57.509196449999997
      0.503014823	58.60819978
      0.520657166	59.807376320000003
      0.53968265500000001	61.123111049999999
      0.56026517099999995	62.575567960000001
      0.58260257699999995	64.189698669999999
      0.60691558199999995	65.996464399999994
      0.63344113800000001	68.034201780000004
      0.662415215	70.349880479999996
      0.69403682899999997	72.999622560000006
      0.72840307800000004	76.047204840000006
      0.76540934699999996	79.558509650000005
      0.80463064699999998	83.589963030000007
      0.84524547999999999	88.171938179999998
      0.88609953900000005	93.294734669999997
      0.92594964300000004	98.90894376
      0.963771241	104.9435902
      0.99893980100000002	111.3300564
      1.0312218310000001	118.0174305
      1.0606584889999999	124.9760964
      1.0874410889999999	132.19454709999999
      1.1118223309999999	139.6744898
      1.1340651580000001	147.42664859999999
      1.1544176930000001	155.46782519999999
      1.173103241	163.8190534
      1.1903180360000001	172.50453999999999
      1.2062325739999999	181.55112829999999
      1.220994358	190.98810510000001
      1.234730984	200.84723579999999
      1.2475531	211.16296399999999
      1.2595570490000001	221.97273730000001
      1.270827143	233.31744900000001
      1.281437594	245.2419931
      1.291454146	257.79594609999998
      1.3009354369999999	271.03439809999998
      1.309934159	285.01896390000002
      1.318498043	299.81902289999999
      1.326670706	315.51324579999999
      1.3344924010000001	332.19149570000002
      1.3420006879999999	349.95721329999998
      1.3492310569999999	368.93044570000001
      1.356217531	389.25173360000002
      1.362993272	411.08716509999999
      1.3695912379999999	434.63503709999998
      1.3760449050000001	460.1347695
      1.382389146	487.87903890000001
      1.3886613240000001	518.23060969999995
      1.394902732	551.64618570000005
      1.401160583	588.71104339999999
      1.4074908660000001	630.19074279999995
      1.4139626249999999	677.11087850000001
      1.420664664	730.8848299
      1.4277165590000001	793.52783980000004
      1.435287779	868.03580320000003
      1.4436331710000001	959.10175079999999
      1.453164339	1074.5891859999999
      1.464608755	1228.9034079999999
      1.479413587	1451.8548430000001
      1.5007295060000001	1812.597843
      1.531321148	2396.2922779999999
      1.5749716949999999	3340.7297119999998
      1.6351726849999999	4868.8615820000005
      1.6746062129999999	6056.7860730000002
      1.7053540309999999	7126.7301200000002
      1.7307497590000001	8135.9466300000004
      1.752580204	9119.3875740000003
      1.771845345	10098.25848
      1.789165838	11087.22133
      1.804957089	12097.58993
      1.819514077	13138.977849999999
      1.8330565510000001	14220.25051
      1.845754994	15350.15127
      1.8577465099999999	16537.778849999999
      1.869145125	17793.012470000001
      1.8800488470000001	19126.948680000001
      1.8905448170000001	20552.403480000001
      1.9007133519999999	22084.53774
      1.9106314310000001	23741.68173
      1.920376064	25546.46932
      1.930027954	27527.455720000002
      1.9396760099999999	29721.505959999999
      1.9494234969999999	32177.45292
      1.959397184	34961.935420000002
      1.969762051	38169.180130000001
      1.980746793	41938.394229999998
      1.9926918389999999	46487.096960000003
      2.0061495709999999	52181.595710000001
      2.022124024	59707.652569999998
      2.042772002	70576.241299999994
      2.0725625070000002	88161.987269999998
      2.1158769670000002	116616.322
      2.1803765140000002	162656.4026
      2.2792825830000001	237150.818
      2.3747656959999999	310949.48619999998
  <EndBlock>
  <BeginBlock>
    <BlockName> = "ShaftAir"
    <Mu_x> = 1
    <Mu_y> = 1
    <H_c> = 0
    <H_cAngle> = 0
    <J_re> = 0
    <J_im> = 0
    <Sigma> = 0
    <d_lam> = 0
    <Phi_h> = 0
    <Phi_hx> = 0
    <Phi_hy> = 0
    <LamType> = 0
    <LamFill> = 1
    <NStrands> = 0
    <WireD> = 0
    <BHPoints> = 3
      -100	-7.9577471545947675e-011
      0	0
      100	7.9577471545947675e-011
  <EndBlock>
  <BeginBlock>
    <BlockName> = "Copper"
    <Mu_x> = 1
    <Mu_y> = 1
    <H_c> = 0
    <H_cAngle> = 0
    <J_re> = 0
    <J_im> = 0
    <Sigma> = 58
    <d_lam> = 0
    <Phi_h> = 0
    <Phi_hx> = 0
    <Phi_hy> = 0
    <LamType> = 0
    <LamFill> = 1
    <NStrands> = 0
    <WireD> = 0
    <BHPoints> = 0
  <EndBlock>
  <BeginBlock>
    <BlockName> = "Aluminium"
    <Mu_x> = 1
    <Mu_y> = 1
    <H_c> = 0
    <H_cAngle> = 0
    <J_re> = 0
    <J_im> = 0
    <Sigma> = 29
    <d_lam> = 0
    <Phi_h> = 0
    <Phi_hx> = 0
    <Phi_hy> = 0
    <LamType> = 0
    <LamFill> = 1
    <NStrands> = 0
    <WireD> = 0
    <BHPoints> = 0
  <EndBlock>
  <BeginBlock>
    <BlockName> = "BMH-38EH"
    <Mu_x> = 1.05
    <Mu_y> = 1.05
    <H_c> = 954929.65855137201
    <H_cAngle> = 0
    <J_re> = 0
    <J_im> = 0
    <Sigma> = 0.66666666666666663
    <d_lam> = 0
    <Phi_h> = 0
    <Phi_hx> = 0
    <Phi_hy> = 0
    <LamType> = 0
    <LamFill> = 1
    <NStrands> = 0
    <WireD> = 0
    <BHPoints> = 0
  <EndBlock>
  <BeginBlock>
    <BlockName> = "DW235"
    <Mu_x> = 1
    <Mu_y> = 1
    <H_c> = 0
    <H_cAngle> = 0
    <J_re> = 0
    <J_im> = 0
    <Sigma> = 0
    <d_lam> = 0
    <Phi_h> = 0
    <Phi_hx> = 0
    <Phi_hy> = 0
    <LamType> = 0
    <LamFill> = 1
    <NStrands> = 0
    <WireD> = 0
    <BHPoints> = 0
  <EndBlock>
  <BeginBlock>
    <BlockName> = "Air"
    <Mu_x> = 1
    <Mu_y> = 1
    <H_c> = 0
    <H_cAngle> = 0
    <J_re> = 0
    <J_im> = 0
    <Sigma> = 0
    <d_lam> = 0
    <Phi_h> = 0
    <Phi_hx> = 0
    <Phi_hy> = 0
    <LamType> = 0
    <LamFill> = 1
    <NStrands> = 0
    <WireD> = 0
    <BHPoints> = 0
  <EndBlock>
  <BeginBlock>
    <BlockName> = "BMH-38EH_1"
    <Mu_x> = 1.05
    <Mu_y> = 1.05
    <H_c> = 954929.65855137201
    <H_cAngle> = 0
    <J_re> = 0
    <J_im> = 0
    <Sigma> = 0.66666666666666663
    <d_lam> = 0
    <Phi_h> = 0
    <Phi_hx> = 0
    <Phi_hy> = 0
    <LamType> = 0
    <LamFill> = 1
    <NStrands> = 0
    <WireD> = 0
    <BHPoints> = 0
  <EndBlock>
  <BeginBlock>
    <BlockName> = "BMH-38EH_2"
    <Mu_x> = 1.05
    <Mu_y> = 1.05
    <H_c> = 954929.65855137201
    <H_cAngle> = 0
    <J_re> = 0
    <J_im> = 0
    <Sigma> = 0.66666666666666663
    <d_lam> = 0
    <Phi_h> = 0
    <Phi_hx> = 0
    <Phi_hy> = 0
    <LamType> = 0
    <LamFill> = 1
    <NStrands> = 0
    <WireD> = 0
    <BHPoints> = 0
  <EndBlock>
[CircuitProps]  = 6
  <BeginCircuit>
    <CircuitName> = "fase1"
    <TotalAmps_re> = -327.91027071400964
    <TotalAmps_im> = -0
    <CircuitType> = 1
  <EndCircuit>
  <BeginCircuit>
    <CircuitName> = "fase2"
    <TotalAmps_re> = 746.19760030112752
    <TotalAmps_im> = 0
    <CircuitType> = 1
  <EndCircuit>
  <BeginCircuit>
    <CircuitName> = "fase3"
    <TotalAmps_re> = -418.28732958711811
    <TotalAmps_im> = -0
    <CircuitType> = 1
  <EndCircuit>
  <BeginCircuit>
    <CircuitName> = "fase1n"
    <TotalAmps_re> = 327.91027071400964
    <TotalAmps_im> = 0
    <CircuitType> = 1
  <EndCircuit>
  <BeginCircuit>
    <CircuitName> = "fase2n"
    <TotalAmps_re> = -746.19760030112752
    <TotalAmps_im> = -0
    <CircuitType> = 1
  <EndCircuit>
  <BeginCircuit>
    <CircuitName> = "fase3n"
    <TotalAmps_re> = 418.28732958711811
    <TotalAmps_im> = 0
    <CircuitType> = 1
  <EndCircuit>
[NumPoints] = 61
983.2245984973739	30.899077812745585	0	2
965.88315967502842	30.354101142740056	0	2
981.76887302217517	61.767661966180867	0	20
964.45310928394463	60.678246452347274	0	2
969.83470615702583	57.9585365439412	0	2
964.63897592225283	57.648033198605354	0	2
983.71000000000015	0	0	20
966.36000000000001	0	0	2
971.56020552284338	3.0522564457185695	0	2
966.35523120846767	3.0359044828545692	0	2
811.86000000000001	0	0	2
810.25797974177658	50.97711118506836	0	2
0	0	0	2
1081	0	0	1
988.71000000000004	0	0	20
1078.8668934309615	67.87655161118775	0	1
986.75900666431642	62.081614563827429	0	20
998.23449023681735	12.978615908023244	0	1
998.26092738889861	10.454146130765242	0	1
998.2604710285591	13.079804411025105	0	1
1064.568523807174	13.774206099376553	0	1
1066.6585709604446	11.729998543762159	0	1
1066.6651188677502	11.170499334678803	0	1
1066.6702896638699	10.610985703993657	0	1
1064.6235115454367	8.5234558318172482	0	1
998.31545876682185	7.8290541434658012	0	1
998.28736454097987	7.9296763535072401	0	1
988.62612820940296	12.877993697981806	0	1
988.67900251356548	7.8290541434658021	0	1
997.74375729327869	33.881215319669202	0	1
997.8230571533137	31.357852858290013	0	1
997.7676132548861	33.982925731009757	0	1
1064.0465811300508	36.065826208533394	0	1
1066.1789805544008	34.065837626476608	0	1
1066.1972442930028	33.506598253839762	0	1
1066.2141315244658	32.947315622723352	0	1
1064.2115202253997	30.817379093580364	0	1
997.93255235023503	28.734478616056723	0	1
997.90235701334882	28.834490396910823	0	1
988.13960981100877	33.579392825771805	0	1
988.2982095310789	28.532667903013426	0	1
996.81538096205145	54.768953310491312	0	1
996.94750874650094	52.247804995164408	0	1
996.83710162951172	54.871141016622587	0	1
1063.0579124553753	58.341626654328479	0	1
1065.2317288099409	56.386734306921625	0	1
1065.2617003687603	55.828000071603164	0	1
1065.2902966282688	55.269193759901945	0	1
1063.3327305600722	53.097784834349135	0	1
997.1119197342083	49.627299196643243	0	1
997.07963653095044	49.726656679837497	0	1
987.21966072143209	54.266062922059113	0	1
987.48391629033085	49.223766291405298	0	1
1080.762918836308	22.638755893908872	0	1
988.4931595584145	20.705979962873858	0	1
1080.0517793368658	45.267581681264787	0	1
987.84273334704233	41.402877598596952	0	1
987.04333333333341	0	0	20
985.09562878360271	61.976963697945244	0	20
985.37666666666667	0	0	20
983.43225090288877	61.872312832063045	0	20
[NumSegments] = 50
0	1	0.9608888888888889	0	0	2
3	2	-1	4	0	2
5	4	0.9608888888888889	0	0	2
7	6	-1	4	0	2
9	8	0.9608888888888889	0	0	2
7	10	-1	3	0	2
11	3	-1	3	0	2
10	12	-1	2	0	2
12	11	-1	2	0	2
13	14	-1	10	0	1
16	15	-1	10	0	1
17	18	0.9608888888888889	0	0	1
19	17	0.9608888888888889	0	0	1
20	19	0.9608888888888889	0	0	1
22	21	0.9608888888888889	0	0	1
23	22	0.9608888888888889	0	0	1
25	24	0.9608888888888889	0	0	1
26	25	0.9608888888888889	0	0	1
18	26	0.9608888888888889	0	0	1
22	18	0.9608888888888889	0	0	1
17	27	0.9608888888888889	0	0	1
28	26	0.9608888888888889	0	0	1
29	30	0.9608888888888889	0	0	1
31	29	0.9608888888888889	0	0	1
32	31	0.9608888888888889	0	0	1
34	33	0.9608888888888889	0	0	1
35	34	0.9608888888888889	0	0	1
37	36	0.9608888888888889	0	0	1
38	37	0.9608888888888889	0	0	1
30	38	0.9608888888888889	0	0	1
34	30	0.9608888888888889	0	0	1
29	39	0.9608888888888889	0	0	1
40	38	0.9608888888888889	0	0	1
41	42	0.9608888888888889	0	0	1
43	41	0.9608888888888889	0	0	1
44	43	0.9608888888888889	0	0	1
46	45	0.9608888888888889	0	0	1
47	46	0.9608888888888889	0	0	1
49	48	0.9608888888888889	0	0	1
50	49	0.9608888888888889	0	0	1
42	50	0.9608888888888889	0	0	1
46	42	0.9608888888888889	0	0	1
41	51	0.9608888888888889	0	0	1
52	50	0.9608888888888889	0	0	1
53	54	0.9608888888888889	0	0	1
55	56	0.9608888888888889	0	0	1
57	14	0.09608888888888889	7	0	20
58	16	0.09608888888888889	7	0	20
59	6	0.09608888888888889	5	0	20
60	2	0.09608888888888889	5	0	20
[NumArcSegments] = 29
0	2	1.7999999999999998	0.01399164334873805	0	0	2	0.01399164334873805
1	5	1.6199999999999997	0.014242848916125572	0	0	2	0.014242848916125572
0	4	49.055377615009768	0.37850692579838846	0	0	2	0.37850692579838846
5	3	0.17999999999999983	0.014242848916125572	0	0	2	0.014242848916125572
6	0	1.7999999999999998	0.01399164334873805	0	0	2	0.01399164334873805
7	9	0.17999999999999966	0.014242848916125574	0	0	2	0.014242848916125574
8	0	49.055377615009725	0.37850692579838879	0	0	2	0.37850692579838879
9	1	1.6199999999999999	0.014242848916125574	0	0	2	0.014242848916125574
10	11	3.6000000000000001	0.016953316432127594	0	0	2	0.016953316432127594
13	53	1.2	0.9608888888888889	1	0	1	0.059999999999999998
14	28	0.45369870624311387	0.013920886284741843	0	0	1	0.013920886284741843
21	20	89.929489088537025	6.6538727063462515	0	0	1	6.6538727063462515
24	23	89.929489088533856	6.6538727063468937	0	0	1	6.6538727063468937
27	54	0.45369870624311348	0.013920886284741843	0	0	1	0.013920886284741843
28	27	0.29260258751377266	0.013920886284741843	0	0	1	0.013920886284741843
33	32	89.929489088537863	6.6538727063462355	0	0	1	6.6538727063462355
36	35	89.92948908853316	6.6538727063468768	0	0	1	6.6538727063468768
39	56	0.45369870624311276	0.013920886284741843	0	0	1	0.013920886284741843
40	39	0.29260258751377222	0.013920886284741843	0	0	1	0.013920886284741843
45	44	89.929489088537153	6.6538727063456298	0	0	1	6.6538727063456298
48	47	89.929489088527291	6.6538727063468546	0	0	1	6.6538727063468546
51	16	0.45369870624311409	0.013920886284741843	0	0	1	0.013920886284741843
52	51	0.29260258751377155	0.013920886284741843	0	0	1	0.013920886284741843
53	55	1.2000000000000002	0.9608888888888889	1	0	1	0.091999999999999998
54	40	0.45369870624311393	0.013920886284741843	0	0	1	0.013920886284741843
55	15	1.2000000000000002	0.9608888888888889	1	0	1	0.070999999999999994
56	52	0.45369870624311409	0.013920886284741843	0	0	1	0.013920886284741843
57	58	3.6000000000000001	0.09608888888888889	11	0	20	0.0076
59	60	3.6000000000000001	0.09608888888888889	11	0	20	0.0076
[NumHoles] = 0
[NumBlockLabels] = 20
972.55762187572441	44.333677877527805	8	0.9608888888888889	0	-178.20000000000007	201	1	0
973.42223623518453	16.821202858468332	9	0.9608888888888889	0	-178.20000000000002	202	1	0
970.17391609634956	59.513119540268676	7	0.9608888888888889	0	0	2	1	0
971.99635918282775	1.5220402321432829	7	0.9608888888888889	0	0	2	1	0
888.67127788677567	27.927620003954647	1	0.9608888888888889	0	0	22	1	0
405.72969804926146	12.750569432584618	7	0.9608888888888889	0	0	2	1	0
1032.4600934524681	11.092075942664147	3	0.9608888888888889	1	0	1	1	0
1032.4659528041809	10.532569522779896	3	0.9608888888888889	1	0	1	1	0
993.45835789613716	10.403851902169309	7	0.9608888888888889	0	0	10	1	0
1073.8029234759344	11.245248982170253	1	0.9608888888888889	0	0	12	1	0
1032.0013629806422	32.711856057003203	3	0.9608888888888889	3	0	1	-1	0
1032.0189384656749	32.152595055126575	3	0.9608888888888889	3	0	1	-1	0
993.02259422625821	31.206992233213118	7	0.9608888888888889	0	0	10	1	0
1073.3319180241795	33.730814408648222	1	0.9608888888888889	0	0	12	1	0
1031.0899626030487	54.317287670138704	3	0.9608888888888889	2	0	1	1	0
1031.1192465122131	53.758517396628875	3	0.9608888888888889	2	0	1	1	0
992.15125802684793	51.9964441460627	7	0.9608888888888889	0	0	10	1	0
1072.3901137192277	56.201584385112717	1	0.9608888888888889	0	0	12	1	0
987.38920916556435	31.029955975571117	7	0.09608888888888889	0	0	20	1	0
984.05752063101204	30.925253445310691	7	0.09608888888888889	0	0	20	1	0
