[Format]      =  4.0
[Frequency]   =  0
[Precision]   =  1e-008
[MinAngle]    =  15
[DoSmartMesh] =  1
[Depth]       =  300
[LengthUnits] =  millimeters
[ProblemType] =  planar
[Coordinates] =  cartesian
[ACSolver]    =  0
[PrevType]    =  0
[PrevSoln]    =  ""
[Comment]     =  "Add comments here."
[PointProps]   = 0
[BdryProps]   = 11
  <BeginBdry>
    <BdryName> = "A=0"
    <BdryType> = 0
    <A_0> = 0
    <A_1> = 0
    <A_2> = 0
    <Phi> = 0
    <c0> = 0
    <c0i> = 0
    <c1> = 0
    <c1i> = 0
    <Mu_ssd> = 0
    <Sigma_ssd> = 0
    <innerangle> = 0
    <outerangle> = 0
  <EndBdry>
  <BeginBdry>
    <BdryName> = "APr1"
    <BdryType> = 5
    <A_0> = 0
    <A_1> = 0
    <A_2> = 0
    <Phi> = 0
    <c0> = 0
    <c0i> = 0
    <c1> = 0
    <c1i> = 0
    <Mu_ssd> = 0
    <Sigma_ssd> = 0
    <innerangle> = 0
    <outerangle> = 0
  <EndBdry>
  <BeginBdry>
    <BdryName> = "APr2"
    <BdryType> = 5
    <A_0> = 0
    <A_1> = 0
    <A_2> = 0
    <Phi> = 0
    <c0> = 0
    <c0i> = 0
    <c1> = 0
    <c1i> = 0
    <Mu_ssd> = 0
    <Sigma_ssd> = 0
    <innerangle> = 0
    <outerangle> = 0
  <EndBdry>
  <BeginBdry>
    <BdryName> = "APr3"
    <BdryType> = 5
    <A_0> = 0
    <A_1> = 0
    <A_2> = 0
    <Phi> = 0
    <c0> = 0
    <c0i> = 0
    <c1> = 0
    <c1i> = 0
    <Mu_ssd> = 0
    <Sigma_ssd> = 0
    <innerangle> = 0
    <outerangle> = 0
  <EndBdry>
  <BeginBdry>
    <BdryName> = "APg1"
    <BdryType> = 5
    <A_0> = 0
    <A_1> = 0
    <A_2> = 0
    <Phi> = 0
    <c0> = 0
    <c0i> = 0
    <c1> = 0
    <c1i> = 0
    <Mu_ssd> = 0
    <Sigma_ssd> = 0
    <innerangle> = 0
    <outerangle> = 0
  <EndBdry>
  <BeginBdry>
    <BdryName> = "APg2"
    <BdryType> = 5
    <A_0> = 0
    <A_1> = 0
    <A_2> = 0
    <Phi> = 0
    <c0> = 0
    <c0i> = 0
    <c1> = 0
    <c1i> = 0
    <Mu_ssd> = 0
    <Sigma_ssd> = 0
    <innerangle> = 0
    <outerangle> = 0
  <EndBdry>
  <BeginBdry>
    <BdryName> = "APg3"
    <BdryType> = 5
    <A_0> = 0
    <A_1> = 0
    <A_2> = 0
    <Phi> = 0
    <c0> = 0
    <c0i> = 0
    <c1> = 0
    <c1i> = 0
    <Mu_ssd> = 0
    <Sigma_ssd> = 0
    <innerangle> = 0
    <outerangle> = 0
  <EndBdry>
  <BeginBdry>
    <BdryName> = "APs1"
    <BdryType> = 5
    <A_0> = 0
    <A_1> = 0
    <A_2> = 0
    <Phi> = 0
    <c0> = 0
    <c0i> = 0
    <c1> = 0
    <c1i> = 0
    <Mu_ssd> = 0
    <Sigma_ssd> = 0
    <innerangle> = 0
    <outerangle> = 0
  <EndBdry>
  <BeginBdry>
    <BdryName> = "APs2"
    <BdryType> = 5
    <A_0> = 0
    <A_1> = 0
    <A_2> = 0
    <Phi> = 0
    <c0> = 0
    <c0i> = 0
    <c1> = 0
    <c1i> = 0
    <Mu_ssd> = 0
    <Sigma_ssd> = 0
    <innerangle> = 0
    <outerangle> = 0
  <EndBdry>
  <BeginBdry>
    <BdryName> = "APs3"
    <BdryType> = 5
    <A_0> = 0
    <A_1> = 0
    <A_2> = 0
    <Phi> = 0
    <c0> = 0
    <c0i> = 0
    <c1> = 0
    <c1i> = 0
    <Mu_ssd> = 0
    <Sigma_ssd> = 0
    <innerangle> = 0
    <outerangle> = 0
  <EndBdry>
  <BeginBdry>
    <BdryName> = "AGap"
    <BdryType> = 7
    <A_0> = 0
    <A_1> = 0
    <A_2> = 0
    <Phi> = 0
    <c0> = 0
    <c0i> = 0
    <c1> = 0
    <c1i> = 0
    <Mu_ssd> = 0
    <Sigma_ssd> = 0
    <innerangle> = 0
    <outerangle> = 0
  <EndBdry>
[BlockProps]  = 19
  <BeginBlock>
    <BlockName> = "M270-35A"
    <Mu_x> = 1
    <Mu_y> = 1
    <H_c> = 0
    <H_cAngle> = 0
    <J_re> = 0
    <J_im> = 0
    <Sigma> = 0
    <d_lam> = 0
    <Phi_h> = 0
    <Phi_hx> = 0
    <Phi_hy> = 0
    <LamType> = 0
    <LamFill> = 1
    <NStrands> = 0
    <WireD> = 0
    <BHPoints> = 200
      0	0
      0.0045422769999999999	3.2767874890000002
      0.0090353559999999996	6.114592773
      0.013222249	8.4602422570000009
      0.017196487	10.462328400000001
      0.020991169	12.199266809999999
      0.024640190999999999	13.72982376
      0.028168996000000002	15.09561901
      0.031597466999999997	16.327217480000002
      0.034941272000000002	17.447599879999999
      0.038212956999999999	18.47443998
      0.041422729999999998	19.421601849999998
      0.044579012000000001	20.300151339999999
      0.047688851999999997	21.119056130000001
      0.050758219	21.885681389999998
      0.053792226999999998	22.60614816
      0.056795300999999999	23.285597330000002
      0.059771310000000001	23.928387470000001
      0.062723663999999998	24.538245379999999
      0.065655396000000005	25.11838217
      0.068569221	25.67158405
      0.071467592999999996	26.200284
      0.074352739000000001	26.70661905
      0.077226698999999996	27.19247648
      0.080091349000000006	27.65953137
      0.082948429000000004	28.109277410000001
      0.085799557999999998	28.54305239
      0.088646256000000007	28.96205934
      0.091489953999999998	29.36738437
      0.094332005999999996	29.760011540000001
      0.097173704999999999	30.140835630000002
      0.100016285	30.510672870000001
      0.102860934	30.870270300000001
      0.105708802	31.220313650000001
      0.108561001	31.561434299999998
      0.11141862	31.894215259999999
      0.114282722	32.21919639
      0.117154355	32.536878999999999
      0.120034552	32.847729870000002
      0.12292433699999999	33.152184810000001
      0.12582473199999999	33.45065185
      0.12873675200000001	33.743513989999997
      0.13166142	34.031131799999997
      0.13459976100000001	34.313845620000002
      0.137552811	34.591977620000002
      0.14052161499999999	34.865833639999998
      0.14350723800000001	35.135704879999999
      0.14651076099999999	35.401869419999997
      0.14953328699999999	35.664593680000003
      0.15257594699999999	35.924133650000002
      0.155639899	36.180736189999998
      0.158726334	36.434640119999997
      0.161836481	36.686077320000003
      0.16497160599999999	36.93527375
      0.16813302299999999	37.182450420000002
      0.17132209400000001	37.427824389999998
      0.17454023399999999	37.671609650000001
      0.17778891699999999	37.914018050000003
      0.18106968000000001	38.155260249999998
      0.18438413100000001	38.395546590000002
      0.18773395400000001	38.635088090000004
      0.191120915	38.87409736
      0.19454686800000001	39.112789630000002
      0.19801376800000001	39.351383830000003
      0.20152367299999999	39.590103640000002
      0.20507876	39.829178749999997
      0.208681327	40.068846100000002
      0.21233381500000001	40.309351300000003
      0.216038808	40.550950149999998
      0.21979905799999999	40.793910310000001
      0.22361749	41.038513199999997
      0.227497227	41.285056060000002
      0.2314416	41.53385428
      0.23545417299999999	41.785244059999997
      0.23953876299999999	42.039585369999998
      0.24369946200000001	42.297265359999997
      0.247940667	42.558702250000003
      0.25226710400000002	42.824349750000003
      0.25668386300000001	43.0947022
      0.26119642799999998	43.370300520000001
      0.26581071499999998	43.651739030000002
      0.27054201700000002	43.94020278
      0.275438138	44.23873004
      0.28051031599999998	44.548036490000001
      0.28576849199999999	44.868763260000001
      0.29122336399999998	45.201605100000002
      0.296886504	45.547319020000003
      0.30277045699999999	45.906731970000003
      0.30888884599999999	46.280749559999997
      0.31525650100000002	46.670366299999998
      0.321889598	47.076677459999999
      0.328805825	47.50089294
      0.33602457000000002	47.944353649999996
      0.34356714500000002	48.408550759999997
      0.351457032	48.895148689999999
      0.35972019	49.406012390000001
      0.36838539799999998	49.943240269999997
      0.37748466600000002	50.509203810000002
      0.38705371900000002	51.106595769999998
      0.39713256899999999	51.738489119999997
      0.40776619800000002	52.408409570000003
      0.41900536300000002	53.120425429999997
      0.43090757000000002	53.879259759999997
      0.44353822799999998	54.690431349999997
      0.45697202599999998	55.560433060000001
      0.47129457299999999	56.49695913
      0.486604327	57.509196449999997
      0.503014823	58.60819978
      0.520657166	59.807376320000003
      0.53968265500000001	61.123111049999999
      0.56026517099999995	62.575567960000001
      0.58260257699999995	64.189698669999999
      0.60691558199999995	65.996464399999994
      0.63344113800000001	68.034201780000004
      0.662415215	70.349880479999996
      0.69403682899999997	72.999622560000006
      0.72840307800000004	76.047204840000006
      0.76540934699999996	79.558509650000005
      0.80463064699999998	83.589963030000007
      0.84524547999999999	88.171938179999998
      0.88609953900000005	93.294734669999997
      0.92594964300000004	98.90894376
      0.963771241	104.9435902
      0.99893980100000002	111.3300564
      1.0312218310000001	118.0174305
      1.0606584889999999	124.9760964
      1.0874410889999999	132.19454709999999
      1.1118223309999999	139.6744898
      1.1340651580000001	147.42664859999999
      1.1544176930000001	155.46782519999999
      1.173103241	163.8190534
      1.1903180360000001	172.50453999999999
      1.2062325739999999	181.55112829999999
      1.220994358	190.98810510000001
      1.234730984	200.84723579999999
      1.2475531	211.16296399999999
      1.2595570490000001	221.97273730000001
      1.270827143	233.31744900000001
      1.281437594	245.2419931
      1.291454146	257.79594609999998
      1.3009354369999999	271.03439809999998
      1.309934159	285.01896390000002
      1.318498043	299.81902289999999
      1.326670706	315.51324579999999
      1.3344924010000001	332.19149570000002
      1.3420006879999999	349.95721329999998
      1.3492310569999999	368.93044570000001
      1.356217531	389.25173360000002
      1.362993272	411.08716509999999
      1.3695912379999999	434.63503709999998
      1.3760449050000001	460.1347695
      1.382389146	487.87903890000001
      1.3886613240000001	518.23060969999995
      1.394902732	551.64618570000005
      1.401160583	588.71104339999999
      1.4074908660000001	630.19074279999995
      1.4139626249999999	677.11087850000001
      1.420664664	730.8848299
      1.4277165590000001	793.52783980000004
      1.435287779	868.03580320000003
      1.4436331710000001	959.10175079999999
      1.453164339	1074.5891859999999
      1.464608755	1228.9034079999999
      1.479413587	1451.8548430000001
      1.5007295060000001	1812.597843
      1.531321148	2396.2922779999999
      1.5749716949999999	3340.7297119999998
      1.6351726849999999	4868.8615820000005
      1.6746062129999999	6056.7860730000002
      1.7053540309999999	7126.7301200000002
      1.7307497590000001	8135.9466300000004
      1.752580204	9119.3875740000003
      1.771845345	10098.25848
      1.789165838	11087.22133
      1.804957089	12097.58993
      1.819514077	13138.977849999999
      1.8330565510000001	14220.25051
      1.845754994	15350.15127
      1.8577465099999999	16537.778849999999
      1.869145125	17793.012470000001
      1.8800488470000001	19126.948680000001
      1.8905448170000001	20552.403480000001
      1.9007133519999999	22084.53774
      1.9106314310000001	23741.68173
      1.920376064	25546.46932
      1.930027954	27527.455720000002
      1.9396760099999999	29721.505959999999
      1.9494234969999999	32177.45292
      1.959397184	34961.935420000002
      1.969762051	38169.180130000001
      1.980746793	41938.394229999998
      1.9926918389999999	46487.096960000003
      2.0061495709999999	52181.595710000001
      2.022124024	59707.652569999998
      2.042772002	70576.241299999994
      2.0725625070000002	88161.987269999998
      2.1158769670000002	116616.322
      2.1803765140000002	162656.4026
      2.2792825830000001	237150.818
      2.3747656959999999	310949.48619999998
  <EndBlock>
  <BeginBlock>
    <BlockName> = "ShaftAir"
    <Mu_x> = 1
    <Mu_y> = 1
    <H_c> = 0
    <H_cAngle> = 0
    <J_re> = 0
    <J_im> = 0
    <Sigma> = 0
    <d_lam> = 0
    <Phi_h> = 0
    <Phi_hx> = 0
    <Phi_hy> = 0
    <LamType> = 0
    <LamFill> = 1
    <NStrands> = 0
    <WireD> = 0
    <BHPoints> = 3
      -100	-7.9577471545947675e-011
      0	0
      100	7.9577471545947675e-011
  <EndBlock>
  <BeginBlock>
    <BlockName> = "Copper"
    <Mu_x> = 1
    <Mu_y> = 1
    <H_c> = 0
    <H_cAngle> = 0
    <J_re> = 0
    <J_im> = 0
    <Sigma> = 58
    <d_lam> = 0
    <Phi_h> = 0
    <Phi_hx> = 0
    <Phi_hy> = 0
    <LamType> = 0
    <LamFill> = 1
    <NStrands> = 0
    <WireD> = 0
    <BHPoints> = 0
  <EndBlock>
  <BeginBlock>
    <BlockName> = "Aluminium"
    <Mu_x> = 1
    <Mu_y> = 1
    <H_c> = 0
    <H_cAngle> = 0
    <J_re> = 0
    <J_im> = 0
    <Sigma> = 29
    <d_lam> = 0
    <Phi_h> = 0
    <Phi_hx> = 0
    <Phi_hy> = 0
    <LamType> = 0
    <LamFill> = 1
    <NStrands> = 0
    <WireD> = 0
    <BHPoints> = 0
  <EndBlock>
  <BeginBlock>
    <BlockName> = "FB14H"
    <Mu_x> = 1.05
    <Mu_y> = 1.05
    <H_c> = 356200
    <H_cAngle> = 0
    <J_re> = 0
    <J_im> = 0
    <Sigma> = 0
    <d_lam> = 0
    <Phi_h> = 0
    <Phi_hx> = 0
    <Phi_hy> = 0
    <LamType> = 0
    <LamFill> = 1
    <NStrands> = 0
    <WireD> = 0
    <BHPoints> = 0
  <EndBlock>
  <BeginBlock>
    <BlockName> = "DW235"
    <Mu_x> = 1
    <Mu_y> = 1
    <H_c> = 0
    <H_cAngle> = 0
    <J_re> = 0
    <J_im> = 0
    <Sigma> = 0
    <d_lam> = 0
    <Phi_h> = 0
    <Phi_hx> = 0
    <Phi_hy> = 0
    <LamType> = 0
    <LamFill> = 1
    <NStrands> = 0
    <WireD> = 0
    <BHPoints> = 0
  <EndBlock>
  <BeginBlock>
    <BlockName> = "Air"
    <Mu_x> = 1
    <Mu_y> = 1
    <H_c> = 0
    <H_cAngle> = 0
    <J_re> = 0
    <J_im> = 0
    <Sigma> = 0
    <d_lam> = 0
    <Phi_h> = 0
    <Phi_hx> = 0
    <Phi_hy> = 0
    <LamType> = 0
    <LamFill> = 1
    <NStrands> = 0
    <WireD> = 0
    <BHPoints> = 0
  <EndBlock>
  <BeginBlock>
    <BlockName> = "FB14H_1"
    <Mu_x> = 1.05
    <Mu_y> = 1.05
    <H_c> = 356200
    <H_cAngle> = 0
    <J_re> = 0
    <J_im> = 0
    <Sigma> = 0
    <d_lam> = 0
    <Phi_h> = 0
    <Phi_hx> = 0
    <Phi_hy> = 0
    <LamType> = 0
    <LamFill> = 1
    <NStrands> = 0
    <WireD> = 0
    <BHPoints> = 0
  <EndBlock>
  <BeginBlock>
    <BlockName> = "FB14H_2"
    <Mu_x> = 1.05
    <Mu_y> = 1.05
    <H_c> = 356200
    <H_cAngle> = 0
    <J_re> = 0
    <J_im> = 0
    <Sigma> = 0
    <d_lam> = 0
    <Phi_h> = 0
    <Phi_hx> = 0
    <Phi_hy> = 0
    <LamType> = 0
    <LamFill> = 1
    <NStrands> = 0
    <WireD> = 0
    <BHPoints> = 0
  <EndBlock>
  <BeginBlock>
    <BlockName> = "FB14H_3"
    <Mu_x> = 1.05
    <Mu_y> = 1.05
    <H_c> = 356200
    <H_cAngle> = 0
    <J_re> = 0
    <J_im> = 0
    <Sigma> = 0
    <d_lam> = 0
    <Phi_h> = 0
    <Phi_hx> = 0
    <Phi_hy> = 0
    <LamType> = 0
    <LamFill> = 1
    <NStrands> = 0
    <WireD> = 0
    <BHPoints> = 0
  <EndBlock>
  <BeginBlock>
    <BlockName> = "FB14H_4"
    <Mu_x> = 1.05
    <Mu_y> = 1.05
    <H_c> = 356200
    <H_cAngle> = 0
    <J_re> = 0
    <J_im> = 0
    <Sigma> = 0
    <d_lam> = 0
    <Phi_h> = 0
    <Phi_hx> = 0
    <Phi_hy> = 0
    <LamType> = 0
    <LamFill> = 1
    <NStrands> = 0
    <WireD> = 0
    <BHPoints> = 0
  <EndBlock>
  <BeginBlock>
    <BlockName> = "FB14H_5"
    <Mu_x> = 1.05
    <Mu_y> = 1.05
    <H_c> = 356200
    <H_cAngle> = 0
    <J_re> = 0
    <J_im> = 0
    <Sigma> = 0
    <d_lam> = 0
    <Phi_h> = 0
    <Phi_hx> = 0
    <Phi_hy> = 0
    <LamType> = 0
    <LamFill> = 1
    <NStrands> = 0
    <WireD> = 0
    <BHPoints> = 0
  <EndBlock>
  <BeginBlock>
    <BlockName> = "FB14H_6"
    <Mu_x> = 1.05
    <Mu_y> = 1.05
    <H_c> = 356200
    <H_cAngle> = 0
    <J_re> = 0
    <J_im> = 0
    <Sigma> = 0
    <d_lam> = 0
    <Phi_h> = 0
    <Phi_hx> = 0
    <Phi_hy> = 0
    <LamType> = 0
    <LamFill> = 1
    <NStrands> = 0
    <WireD> = 0
    <BHPoints> = 0
  <EndBlock>
  <BeginBlock>
    <BlockName> = "FB14H_7"
    <Mu_x> = 1.05
    <Mu_y> = 1.05
    <H_c> = 356200
    <H_cAngle> = 0
    <J_re> = 0
    <J_im> = 0
    <Sigma> = 0
    <d_lam> = 0
    <Phi_h> = 0
    <Phi_hx> = 0
    <Phi_hy> = 0
    <LamType> = 0
    <LamFill> = 1
    <NStrands> = 0
    <WireD> = 0
    <BHPoints> = 0
  <EndBlock>
  <BeginBlock>
    <BlockName> = "FB14H_8"
    <Mu_x> = 1.05
    <Mu_y> = 1.05
    <H_c> = 356200
    <H_cAngle> = 0
    <J_re> = 0
    <J_im> = 0
    <Sigma> = 0
    <d_lam> = 0
    <Phi_h> = 0
    <Phi_hx> = 0
    <Phi_hy> = 0
    <LamType> = 0
    <LamFill> = 1
    <NStrands> = 0
    <WireD> = 0
    <BHPoints> = 0
  <EndBlock>
  <BeginBlock>
    <BlockName> = "FB14H_9"
    <Mu_x> = 1.05
    <Mu_y> = 1.05
    <H_c> = 356200
    <H_cAngle> = 0
    <J_re> = 0
    <J_im> = 0
    <Sigma> = 0
    <d_lam> = 0
    <Phi_h> = 0
    <Phi_hx> = 0
    <Phi_hy> = 0
    <LamType> = 0
    <LamFill> = 1
    <NStrands> = 0
    <WireD> = 0
    <BHPoints> = 0
  <EndBlock>
  <BeginBlock>
    <BlockName> = "FB14H_10"
    <Mu_x> = 1.05
    <Mu_y> = 1.05
    <H_c> = 356200
    <H_cAngle> = 0
    <J_re> = 0
    <J_im> = 0
    <Sigma> = 0
    <d_lam> = 0
    <Phi_h> = 0
    <Phi_hx> = 0
    <Phi_hy> = 0
    <LamType> = 0
    <LamFill> = 1
    <NStrands> = 0
    <WireD> = 0
    <BHPoints> = 0
  <EndBlock>
  <BeginBlock>
    <BlockName> = "FB14H_11"
    <Mu_x> = 1.05
    <Mu_y> = 1.05
    <H_c> = 356200
    <H_cAngle> = 0
    <J_re> = 0
    <J_im> = 0
    <Sigma> = 0
    <d_lam> = 0
    <Phi_h> = 0
    <Phi_hx> = 0
    <Phi_hy> = 0
    <LamType> = 0
    <LamFill> = 1
    <NStrands> = 0
    <WireD> = 0
    <BHPoints> = 0
  <EndBlock>
  <BeginBlock>
    <BlockName> = "FB14H_12"
    <Mu_x> = 1.05
    <Mu_y> = 1.05
    <H_c> = 356200
    <H_cAngle> = 0
    <J_re> = 0
    <J_im> = 0
    <Sigma> = 0
    <d_lam> = 0
    <Phi_h> = 0
    <Phi_hx> = 0
    <Phi_hy> = 0
    <LamType> = 0
    <LamFill> = 1
    <NStrands> = 0
    <WireD> = 0
    <BHPoints> = 0
  <EndBlock>
[CircuitProps]  = 6
  <BeginCircuit>
    <CircuitName> = "fase1"
    <TotalAmps_re> = 0
    <TotalAmps_im> = 0
    <CircuitType> = 1
  <EndCircuit>
  <BeginCircuit>
    <CircuitName> = "fase2"
    <TotalAmps_re> = 0
    <TotalAmps_im> = 0
    <CircuitType> = 1
  <EndCircuit>
  <BeginCircuit>
    <CircuitName> = "fase3"
    <TotalAmps_re> = 0
    <TotalAmps_im> = 0
    <CircuitType> = 1
  <EndCircuit>
  <BeginCircuit>
    <CircuitName> = "fase1n"
    <TotalAmps_re> = 0
    <TotalAmps_im> = 0
    <CircuitType> = 1
  <EndCircuit>
  <BeginCircuit>
    <CircuitName> = "fase2n"
    <TotalAmps_re> = 0
    <TotalAmps_im> = 0
    <CircuitType> = 1
  <EndCircuit>
  <BeginCircuit>
    <CircuitName> = "fase3n"
    <TotalAmps_re> = 0
    <TotalAmps_im> = 0
    <CircuitType> = 1
  <EndCircuit>
[NumPoints] = 213
560.41486727281404	60.446123894371809	0	2
561.40606636383802	49.116666441518376	0	2
567.22113242678483	61.646252078872735	0	2
569.0367472918964	64.074317656285857	0	2
566.80126437007095	65.745926554061228	0	2
555.99155733659518	63.839883550505405	0	2
557.31101652601001	48.758396004134759	0	2
547.7871768031323	70.283008475766735	0	2
549.72837593114627	48.095000912492715	0	2
563.12139415780086	72.9868447234428	0	2
567.21201854282674	78.605750249152507	0	2
566.47351467629255	79.143389102855565	0	2
541.8893845253574	74.808543659997213	0	2
544.26830948070926	47.617306995981238	0	2
527.76679090463722	49.359623818437569	0	2
530.46312977961531	47.097126862914514	0	2
533.69439362476976	47.379825818226713	0	2
535.95689058029279	50.076164693204788	0	2
533.20780197561612	81.498391229584769	0	2
560.26412465529927	86.269150916767259	0	2
565.03117665884213	92.995200710491289	0	2
562.2486644188308	94.967291455492955	0	2
524.36111355895343	88.286694005932389	0	2
558.21777507787317	48.837727097977968	0	2
557.22657598684918	60.167184550831401	0	2
561.7612841226354	60.683533512275815	0	2
561.20559635594179	63.834995440908692	0	2
566.88228443829883	61.58650403614385	0	2
566.32659667160533	64.737965964776734	0	2
545.17506803257231	47.696638089824447	0	2
543.23386890455834	69.884645653098474	0	2
549.13359365295366	70.520418093670742	0	2
548.33989978923557	75.021679673316527	0	2
562.78302910970297	72.927181836134395	0	2
561.98933524598488	77.42844341578018	0	2
528.67354945650027	49.438954912280778	0	2
525.9244608518236	80.861181448660744	0	2
534.55421882543749	81.735800847488761	0	2
533.28464881477964	88.935890167663558	0	2
559.922866543032	86.208977904188899	0	2
558.65329653237416	93.409067224363682	0	2
562.39726545486201	37.787208988664943	0	2
569.30852821975463	37.787208988664943	0	2
571.51818897817418	35.711309395878033	0	2
569.60693990390462	33.676908457764128	0	2
558.63047571542484	33.676908457764114	0	2
551.66957505916025	25.906993349218691	0	2
567.24034743353093	25.906993349218688	0	2
572.24453874758717	21.083781094036269	0	2
571.61061442138339	20.426070331965263	0	2
546.64723443606113	20.42607033196526	0	2
530.58253314717956	45.732340126528818	0	2
528.32003619165653	43.036001251550744	0	2
533.81379699233401	46.015039081841017	0	2
536.5101358673121	43.752542126317962	0	2
539.25922447198877	12.330315589937989	0	2
566.73293454070688	12.330315589937982	0	2
572.59553060238557	6.5342394991910879	0	2
570.1977409396344	4.1089310640559304	0	2
531.72571353734031	4.1089310640559233	0	2
559.20897416889716	37.508269645124535	0	2
563.76445295486189	37.787208988664943	0	2
563.76445295486189	34.587130679986338	0	2
568.96445295486194	37.787208988664943	0	2
568.96445295486183	34.587130679986331	0	2
547.11626716058629	25.508630526550423	0	2
553.03676255916014	25.906993349218684	0	2
553.03676255916014	21.336292554187477	0	2
566.89676255916015	25.906993349218681	0	2
566.89676255916015	21.336292554187466	0	2
529.22679474351958	43.115332345393952	0	2
531.97588334819625	11.693105809013979	0	2
540.62641197198889	12.330315589937982	0	2
540.62641197198866	5.019153286278133	0	2
566.38641197198888	12.330315589937982	0	2
566.38641197198865	5.0191532862781258	0	2
574	0	0	20
400	0	0	2
565.27965022900742	99.674053980818016	0	20
393.92310120488321	69.459271066772132	0	2
0	0	0	2
700	0	0	1
575.3671875	0	0	20
689.36542710854565	121.55372436685123	0	1
566.62606707882878	99.911463598722023	0	20
581.54514892653856	7.1732702793423471	0	1
581.56002472171201	5.6391418549614638	0	1
581.88749559987389	8.5023416429702294	0	1
683.98969134145977	9.4923744942493755	0	1
684.02339913491539	6.6326859066362225	0	1
684.04514193425325	3.7728723149482719	0	1
581.94295528268992	2.7828305295687361	0	1
581.57490051688546	4.1050134305805805	0	1
632.8164527500511	3.2761293408371888	0	1
632.76099306723506	8.9956404542386821	0	1
575.32321920160484	7.1129388555184807	0	1
575.35297079195175	4.044682006756716	0	1
581.29670198913414	18.448856415678467	0	1
581.34132378047616	16.915304914256737	0	1
581.61321182741744	19.784316432537562	0	1
683.67701128344675	22.754060680640556	0	1
683.76616590900767	19.895563437996152	0	1
683.84336021421871	17.036709197610826	0	1
581.77957001974676	14.066956193354958	0	1
581.3859455718183	15.38175341283501	0	1
632.63393604528403	15.546667117651841	0	1
632.46757785295472	21.264027356834447	0	1
575.07711207751163	18.267884832387995	0	1
575.16635566019579	15.200781829544542	0	1
580.82965313540421	29.717504691619581	0	1
580.90400414248415	28.185106819159035	0	1
581.12020711222976	31.058851149813862	0	1
683.10722826183076	36.007189995382639	0	1
683.25179619208825	33.150959061615971	0	1
683.38441297355132	30.294139270694508	0	1
581.39740125355979	25.34579185021321	0	1
580.97835514956409	26.652708946698489	0	1
632.2135115900021	27.811358428775634	0	1
631.93631744867196	33.524417728376292	0	1
574.6147419704962	29.41596100487379	0	1
574.76344398465608	26.351165259952698	0	1
580.14417800332217	40.974977429403054	0	1
580.24823026576678	39.444309458073036	0	1
580.40866685322192	42.321705903386643	0	1
682.28055654870366	49.246778478553601	0	1
682.48048341757158	46.393887965307577	0	1
682.66847280353886	43.540176956937977	0	1
580.79659270217257	36.615095991323514	0	1
580.35228252821162	37.913641486743018	0	1
631.555337488649	40.065591025395562	0	1
631.16741163969834	45.772200937458692	0	1
573.93628275904643	40.552975037450288	0	1
574.144387283936	37.491639094790258	0	1
579.240534372051	52.217041153929088	0	1
579.37424876006014	50.688678705353887	0	1
579.47885863158535	53.568645194200073	0	1
681.19730702148843	62.467847262384417	0	1
681.45251764464797	59.619370025106392	0	1
681.69580893999944	56.769840963290669	0	1
579.97737030510996	47.870630692279157	0	1
579.50796314806917	49.160316256778692	0	1
630.65966125358671	52.304756591793435	0	1
630.16114958006222	58.002771093714351	0	1
573.04198958392476	51.674738754610331	0	1
573.30941835994292	48.618013857459943	0	1
578.11906206500453	63.439468184797612	0	1
578.28238829406507	61.913986013588698	0	1
578.3311321101661	64.795439508353013	0	1
679.85788704603056	75.665424443607577	0	1
680.16828544920372	72.822431678092315	0	1
680.46678716203314	69.978156154173433	0	1
578.94004213841163	59.10816320679676	0	1
578.44571452312562	60.388503842379784	0	1
629.52681971201696	64.52425247834492	0	1
628.91790968377143	70.211528779901158	0	1
571.93219875222042	62.777069715866716	0	1
572.25885121034173	59.726105373448888	0	1
576.7801828220521	74.638038226165946	0	1
576.97305947184907	73.116010003780247	0	1
576.9659189019701	75.997866907646127	0	1
678.26280032340458	88.834546953186575	0	1
678.62826977844634	85.998107792743312	0	1
678.98186965446735	83.160155422423443	0	1
577.6849982987776	70.32346755847901	0	1
577.16593612164593	71.593981781394575	0	1
628.1572388793137	76.719483432387818	0	1
627.43815948250619	82.393882781554936	0	1
570.6073276108782	73.855792788596943	0	1
570.99308091047192	70.811736343825572	0	1
575.22440014092115	85.808539953829467	0	1
575.44675467843444	84.290538052835046	0	1
575.38373240785188	87.17171461728023	0	1
676.4126467004927	101.97026242272318	0	1
676.8330497692873	99.141443536118288	0	1
677.24161483404782	96.310881557220199	0	1
576.21271075686843	81.512326130031553	0	1
575.66910921594774	82.772536151840626	0	1
626.55143379881622	88.885863326308723	0	1
625.72245544979955	94.545251813557414	0	1
569.06787438975084	84.906741718139955	0	1
569.51258346477744	81.870737916151128	0	1
573.45229908785097	96.946772598928462	0	1
573.70404789463282	95.433367877758556	0	1
573.58516762344516	98.312780610108661	0	1
674.30812194440648	115.06763104684073	0	1
674.78330053055333	112.24749623716724	0	1
675.24667713944143	109.42538910828966	0	1
574.52373317981642	92.67053124933642	0	1
573.95579670141456	93.919963156588651	0	1
624.71000834814265	101.01881688219801	0	1
623.77144279177151	106.66106624297024	0	1
567.31441801423603	95.925760694554015	0	1
567.81791562779961	92.898951252214204	0	1
699.86837931395098	13.573932240277058	0	1
575.25900146578738	11.15713602343398	0	1
699.47356675296101	27.142759879771695	0	1
574.93448404749245	22.310076304302971	0	1
698.8157107898877	40.701380237333076	0	1
574.39375728284438	33.454626677889166	0	1
697.89505881745447	54.244694470351654	0	1
573.63702451706547	44.586596134575764	0	1
696.71195705521609	67.767609492225361	0	1
572.66457032640062	55.701798395914302	0	1
695.26685041936014	81.26503988766116	0	1
571.4767604111006	66.796053488912747	0	1
693.56028235539168	94.731909825091762	0	1
570.07404145789656	77.865189317952371	0	1
691.59289463376626	108.16315496548833	0	1
568.45694097201999	88.905043233742404	0	1
574.91145833333337	0	0	20
566.17726146222174	99.832327059420692	0	20
574.45572916666663	0	0	20
565.72845584561446	99.753190520119333	0	20
[NumSegments] = 207
0	1	44.444444444444443	0	0	2
2	27	44.444444444444443	0	0	2
5	4	44.444444444444443	0	0	2
6	5	44.444444444444443	0	0	2
7	8	44.444444444444443	0	0	2
9	33	44.444444444444443	0	0	2
12	11	44.444444444444443	0	0	2
13	12	44.444444444444443	0	0	2
16	15	44.444444444444443	0	0	2
18	17	44.444444444444443	0	0	2
19	39	44.444444444444443	0	0	2
22	21	44.444444444444443	0	0	2
14	22	44.444444444444443	0	0	2
1	23	44.444444444444443	0	0	2
24	0	44.444444444444443	0	0	2
23	24	44.444444444444443	0	0	2
25	0	44.444444444444443	0	0	2
25	26	44.444444444444443	0	0	2
27	25	44.444444444444443	0	0	2
28	27	44.444444444444443	0	0	2
26	28	44.444444444444443	0	0	2
8	29	44.444444444444443	0	0	2
30	7	44.444444444444443	0	0	2
29	30	44.444444444444443	0	0	2
31	7	44.444444444444443	0	0	2
31	32	44.444444444444443	0	0	2
33	31	44.444444444444443	0	0	2
34	33	44.444444444444443	0	0	2
32	34	44.444444444444443	0	0	2
17	35	44.444444444444443	0	0	2
36	18	44.444444444444443	0	0	2
35	36	44.444444444444443	0	0	2
37	18	44.444444444444443	0	0	2
37	38	44.444444444444443	0	0	2
39	37	44.444444444444443	0	0	2
40	39	44.444444444444443	0	0	2
38	40	44.444444444444443	0	0	2
41	1	44.444444444444443	0	0	2
42	63	44.444444444444443	0	0	2
45	44	44.444444444444443	0	0	2
6	45	44.444444444444443	0	0	2
46	8	44.444444444444443	0	0	2
47	68	44.444444444444443	0	0	2
50	49	44.444444444444443	0	0	2
13	50	44.444444444444443	0	0	2
53	51	44.444444444444443	0	0	2
55	54	44.444444444444443	0	0	2
56	74	44.444444444444443	0	0	2
59	58	44.444444444444443	0	0	2
52	59	44.444444444444443	0	0	2
60	41	44.444444444444443	0	0	2
23	60	44.444444444444443	0	0	2
61	41	44.444444444444443	0	0	2
61	62	44.444444444444443	0	0	2
63	61	44.444444444444443	0	0	2
64	63	44.444444444444443	0	0	2
62	64	44.444444444444443	0	0	2
65	46	44.444444444444443	0	0	2
29	65	44.444444444444443	0	0	2
66	46	44.444444444444443	0	0	2
66	67	44.444444444444443	0	0	2
68	66	44.444444444444443	0	0	2
69	68	44.444444444444443	0	0	2
67	69	44.444444444444443	0	0	2
54	70	44.444444444444443	0	0	2
71	55	44.444444444444443	0	0	2
70	71	44.444444444444443	0	0	2
72	55	44.444444444444443	0	0	2
72	73	44.444444444444443	0	0	2
74	72	44.444444444444443	0	0	2
75	74	44.444444444444443	0	0	2
73	75	44.444444444444443	0	0	2
76	77	-1	4	0	2
79	78	-1	4	0	2
77	80	-1	2	0	2
80	79	-1	2	0	2
81	82	-1	10	0	1
84	83	-1	10	0	1
85	86	44.444444444444443	0	0	1
87	85	44.444444444444443	0	0	1
88	94	44.444444444444443	0	0	1
89	88	44.444444444444443	0	0	1
90	89	44.444444444444443	0	0	1
91	93	44.444444444444443	0	0	1
92	91	44.444444444444443	0	0	1
86	92	44.444444444444443	0	0	1
93	90	44.444444444444443	0	0	1
94	87	44.444444444444443	0	0	1
93	94	44.444444444444443	0	0	1
85	95	44.444444444444443	0	0	1
96	92	44.444444444444443	0	0	1
97	98	44.444444444444443	0	0	1
99	97	44.444444444444443	0	0	1
100	106	44.444444444444443	0	0	1
101	100	44.444444444444443	0	0	1
102	101	44.444444444444443	0	0	1
103	105	44.444444444444443	0	0	1