[Format]      =  4.0
[Frequency]   =  0
[Precision]   =  1e-008
[MinAngle]    =  15
[DoSmartMesh] =  1
[Depth]       =  100
[LengthUnits] =  millimeters
[ProblemType] =  planar
[Coordinates] =  cartesian
[ACSolver]    =  0
[PrevType]    =  0
[PrevSoln]    =  ""
[Comment]     =  "Add comments here."
[PointProps]   = 0
[BdryProps]   = 1
  <BeginBdry>
    <BdryName> = "A=0"
    <BdryType> = 0
    <A_0> = 0
    <A_1> = 0
    <A_2> = 0
    <Phi> = 0
    <c0> = 0
    <c0i> = 0
    <c1> = 0
    <c1i> = 0
    <Mu_ssd> = 0
    <Sigma_ssd> = 0
    <innerangle> = 0
    <outerangle> = 0
  <EndBdry>
[BlockProps]  = 7
  <BeginBlock>
    <BlockName> = "M530-65A"
    <Mu_x> = 1
    <Mu_y> = 1
    <H_c> = 0
    <H_cAngle> = 0
    <J_re> = 0
    <J_im> = 0
    <Sigma> = 0
    <d_lam> = 0
    <Phi_h> = 0
    <Phi_hx> = 0
    <Phi_hy> = 0
    <LamType> = 0
    <LamFill> = 1
    <NStrands> = 0
    <WireD> = 0
    <BHPoints> = 199
      0	0
      0.018848	12.326973000000001
      0.038573999999999997	22.163343000000001
      0.059312999999999998	30.264441000000001
      0.081240999999999994	37.121026999999998
      0.104587	43.070056000000001
      0.12967000000000001	48.356479
      0.156946	53.171472999999999
      0.187116	57.680774999999997
      0.221361	62.054786999999997
      0.26198100000000002	66.524258000000003
      0.314919	71.574237999999994
      0.442722	82.040378000000004
      0.57165600000000005	92.228953000000004
      0.62506200000000001	96.637904000000006
      0.66604200000000002	100.157055
      0.70059000000000005	103.243889
      0.73102699999999998	106.07473
      0.75854500000000002	108.74006199999999
      0.78385000000000005	111.294023
      0.80740299999999998	113.77241100000001
      0.82952400000000004	116.200692
      0.85044799999999998	118.598054
      0.87034800000000001	120.97966099999999
      0.88936300000000001	123.358001
      0.90760099999999999	125.743736
      0.925149	128.146277
      0.94208199999999997	130.574173
      0.95845899999999995	133.03539799999999
      0.97433099999999995	135.53756799999999
      0.98974300000000004	138.088109
      1.0047330000000001	140.69439700000001
      1.019333	143.36387099999999
      1.0335719999999999	146.10414599999999
      1.047477	148.923102
      1.0610679999999999	151.82898499999999
      1.074368	154.830499
      1.0873930000000001	157.93690100000001
      1.10016	161.158107
      1.1126830000000001	164.50479999999999
      1.1249769999999999	167.98855499999999
      1.137054	171.62196900000001
      1.1489229999999999	175.41881900000001
      1.1605970000000001	179.394229
      1.1720839999999999	183.56486799999999
      1.183392	187.94917699999999
      1.194531	192.56763000000001
      1.2055070000000001	197.44303199999999
      1.2163269999999999	202.600876
      1.226998	208.069751
      1.237525	213.881823
      1.2479150000000001	220.073407
      1.258173	226.685632
      1.268303	233.76522800000001
      1.278311	241.36546999999999
      1.2882	249.547281
      1.297974	258.38055000000003
      1.307639	267.945695
      1.317196	278.33551
      1.3266500000000001	289.657352
      1.336004	302.03570000000002
      1.345261	315.615139
      1.3544240000000001	330.56378699999999
      1.363496	347.07715100000001
      1.372479	365.38233400000001
      1.3813770000000001	385.74240600000002
      1.390191	408.46058799999997
      1.3989229999999999	433.88362499999999
      1.4075770000000001	462.40341799999999
      1.416153	494.45556900000003
      1.424655	530.51313400000004
      1.433084	571.07376399999998
      1.4414419999999999	616.63877300000001
      1.44973	667.683943
      1.457951	724.6241
      1.466105	787.77634999999998
      1.4741949999999999	857.32916
      1.4822219999999999	933.32478600000002
      1.4901880000000001	1015.660001
      1.498094	1104.1052070000001
      1.5059400000000001	1198.337168
      1.51373	1297.9777180000001
      1.521463	1402.631005
      1.5291399999999999	1511.9141030000001
      1.5367649999999999	1625.4788289999999
      1.5443359999999999	1743.0249819999999
      1.5518559999999999	1864.306583
      1.5593250000000001	1989.1331339999999
      1.5667439999999999	2117.3677389999998
      1.5741149999999999	2248.9235370000001
      1.5814379999999999	2383.7594840000002
      1.588714	2521.8761
      1.595944	2663.3115870000001
      1.603129	2808.1384779999998
      1.6102700000000001	2956.460916
      1.6173679999999999	3108.4125450000001
      1.624423	3264.1550130000001
      1.6314360000000001	3423.8770279999999
      1.6384080000000001	3587.7939299999998
      1.64534	3756.1477399999999
      1.6522319999999999	3929.2076630000001
      1.659084	4107.2710040000002
      1.665899	4290.6645090000002
      1.6726749999999999	4479.7461000000003
      1.6794150000000001	4674.9070380000003
      1.686118	4876.5745010000001
      1.692785	5085.214626
      1.699417	5301.3360259999999
      1.7060139999999999	5525.493837
      1.7125760000000001	5758.2943370000003
      1.7191050000000001	6000.4002049999999
      1.7256009999999999	6252.5364829999999
      1.732064	6515.4973220000002
      1.738494	6790.15362
      1.744893	7077.4616260000003
      1.751261	7378.4726540000001
      1.757598	7694.3440220000002
      1.7639039999999999	8026.3513469999998
      1.7701800000000001	8375.9023460000008
      1.776427	8744.552291
      1.782645	9134.0212510000001
      1.788834	9546.2132579999998
      1.7949949999999999	9983.2374779999991
      1.8011280000000001	10447.43145
      1.8072330000000001	10941.38629
      1.8133109999999999	11467.973819999999
      1.8193619999999999	12030.37499
      1.8253870000000001	12632.10929
      1.831385	13277.063829999999
      1.837358	13969.52079
      1.843305	14714.181049999999
      1.8492280000000001	15516.181070000001
      1.8551249999999999	16381.09935
      1.8609979999999999	17314.947639999999
      1.866846	18324.141339999998
      1.872671	19415.442930000001
      1.8784719999999999	20595.871869999999
      1.88425	21872.575840000001
      1.890004	23252.659780000002
      1.8957360000000001	24742.973529999999
      1.9014450000000001	26349.86418
      1.907133	28078.906019999999
      1.912798	29934.628089999998
      1.9184410000000001	31920.26454
      1.9240630000000001	34037.555240000002
      1.9296629999999999	36286.621249999997
      1.935243	38665.931929999999
      1.9408019999999999	41172.369030000002
      1.94634	43801.379809999999
      1.9518580000000001	46547.200389999998
      1.957355	49403.123290000003
      1.962833	52361.781179999998
      1.9682919999999999	55415.421999999999
      1.97373	58556.156179999998
      1.97915	61776.164400000001
      1.98455	65067.860919999999
      1.989932	68424.013019999999
      1.995295	71837.820730000007
      2.0006390000000001	75302.963180000006
      2.0059659999999999	78813.618239999996
      2.0112739999999998	82364.46213
      2.0165639999999998	85950.654729999995
      2.021836	89567.815289999999
      2.027091	93211.992480000001
      2.0323289999999998	96879.631450000001
      2.0375489999999998	100567.53999999999
      2.0427529999999998	104272.8551
      2.047939	107993.01149999999
      2.0531090000000001	111725.7111
      2.058262	115468.8958
      2.063399	119220.7224
      2.0685199999999999	122979.53909999999
      2.0736240000000001	126743.8655
      2.078713	130512.374
      2.0837859999999999	134283.8731
      2.0888429999999998	138057.29300000001
      2.0938850000000002	141831.67240000001
      2.0989110000000002	145606.147
      2.1039219999999998	149379.93890000001
      2.1089190000000002	153152.34830000001
      2.1139000000000001	156922.74419999999
      2.1188660000000001	160690.55840000001
      2.123818	164455.2782
      2.128755	168216.44140000001
      2.1336780000000002	171973.63080000001
      2.1385860000000001	175726.46979999999
      2.1434799999999998	179474.6188
      2.148361	183217.77100000001
      2.1532269999999998	186955.64970000001
      2.1580789999999999	190688.00520000001
      2.1629179999999999	194414.61249999999
      2.1677430000000002	198135.26860000001
      2.172555	201849.79079999999
      2.1773539999999998	205558.0148
      2.1821389999999998	209259.79310000001
      2.1869109999999998	212954.99309999999
      2.1916699999999998	216643.4963
      2.1964160000000001	220325.1967
      2.201149	224000
  <EndBlock>
  <BeginBlock>
    <BlockName> = "ShaftAir"
    <Mu_x> = 1
    <Mu_y> = 1
    <H_c> = 0
    <H_cAngle> = 0
    <J_re> = 0
    <J_im> = 0
    <Sigma> = 0
    <d_lam> = 0
    <Phi_h> = 0
    <Phi_hx> = 0
    <Phi_hy> = 0
    <LamType> = 0
    <LamFill> = 1
    <NStrands> = 0
    <WireD> = 0
    <BHPoints> = 3
      -100	-7.9577471545947675e-011
      0	0
      100	7.9577471545947675e-011
  <EndBlock>
  <BeginBlock>
    <BlockName> = "Copper"
    <Mu_x> = 1
    <Mu_y> = 1
    <H_c> = 0
    <H_cAngle> = 0
    <J_re> = 0
    <J_im> = 0
    <Sigma> = 58
    <d_lam> = 0
    <Phi_h> = 0
    <Phi_hx> = 0
    <Phi_hy> = 0
    <LamType> = 0
    <LamFill> = 1
    <NStrands> = 0
    <WireD> = 0
    <BHPoints> = 0
  <EndBlock>
  <BeginBlock>
    <BlockName> = "Aluminium"
    <Mu_x> = 1
    <Mu_y> = 1
    <H_c> = 0
    <H_cAngle> = 0
    <J_re> = 0
    <J_im> = 0
    <Sigma> = 29
    <d_lam> = 0
    <Phi_h> = 0
    <Phi_hx> = 0
    <Phi_hy> = 0
    <LamType> = 0
    <LamFill> = 1
    <NStrands> = 0
    <WireD> = 0
    <BHPoints> = 0
  <EndBlock>
  <BeginBlock>
    <BlockName> = "Air"
    <Mu_x> = 1
    <Mu_y> = 1
    <H_c> = 0
    <H_cAngle> = 0
    <J_re> = 0
    <J_im> = 0
    <Sigma> = 0
    <d_lam> = 0
    <Phi_h> = 0
    <Phi_hx> = 0
    <Phi_hy> = 0
    <LamType> = 0
    <LamFill> = 1
    <NStrands> = 0
    <WireD> = 0
    <BHPoints> = 0
  <EndBlock>
  <BeginBlock>
    <BlockName> = "DW235"
    <Mu_x> = 1
    <Mu_y> = 1
    <H_c> = 0
    <H_cAngle> = 0
    <J_re> = 0
    <J_im> = 0
    <Sigma> = 0
    <d_lam> = 0
    <Phi_h> = 0
    <Phi_hx> = 0
    <Phi_hy> = 0
    <LamType> = 0
    <LamFill> = 1
    <NStrands> = 0
    <WireD> = 0
    <BHPoints> = 0
  <EndBlock>
  <BeginBlock>
    <BlockName> = "Air"
    <Mu_x> = 1
    <Mu_y> = 1
    <H_c> = 0
    <H_cAngle> = 0
    <J_re> = 0
    <J_im> = 0
    <Sigma> = 0
    <d_lam> = 0
    <Phi_h> = 0
    <Phi_hx> = 0
    <Phi_hy> = 0
    <LamType> = 0
    <LamFill> = 1
    <NStrands> = 0
    <WireD> = 0
    <BHPoints> = 0
  <EndBlock>
[CircuitProps]  = 13
  <BeginCircuit>
    <CircuitName> = "conductor_1"
    <TotalAmps_re> = 0
    <TotalAmps_im> = 0
    <CircuitType> = 1
  <EndCircuit>
  <BeginCircuit>
    <CircuitName> = "conductor_2"
    <TotalAmps_re> = 0
    <TotalAmps_im> = 0
    <CircuitType> = 1
  <EndCircuit>
  <BeginCircuit>
    <CircuitName> = "conductor_3"
    <TotalAmps_re> = 0
    <TotalAmps_im> = 0
    <CircuitType> = 1
  <EndCircuit>
  <BeginCircuit>
    <CircuitName> = "conductor_4"
    <TotalAmps_re> = 0
    <TotalAmps_im> = 0
    <CircuitType> = 1
  <EndCircuit>
  <BeginCircuit>
    <CircuitName> = "conductor_5"
    <TotalAmps_re> = 0
    <TotalAmps_im> = 0
    <CircuitType> = 1
  <EndCircuit>
  <BeginCircuit>
    <CircuitName> = "conductor_6"
    <TotalAmps_re> = 0
    <TotalAmps_im> = 0
    <CircuitType> = 1
  <EndCircuit>
  <BeginCircuit>
    <CircuitName> = "conductor_7"
    <TotalAmps_re> = 0
    <TotalAmps_im> = 0
    <CircuitType> = 1
  <EndCircuit>
  <BeginCircuit>
    <CircuitName> = "conductor_8"
    <TotalAmps_re> = 0
    <TotalAmps_im> = 0
    <CircuitType> = 1
  <EndCircuit>
  <BeginCircuit>
    <CircuitName> = "conductor_9"
    <TotalAmps_re> = 0
    <TotalAmps_im> = 0
    <CircuitType> = 1
  <EndCircuit>
  <BeginCircuit>
    <CircuitName> = "conductor_10"
    <TotalAmps_re> = 0
    <TotalAmps_im> = 0
    <CircuitType> = 1
  <EndCircuit>
  <BeginCircuit>
    <CircuitName> = "conductor_11"
    <TotalAmps_re> = 0
    <TotalAmps_im> = 0
    <CircuitType> = 1
  <EndCircuit>
  <BeginCircuit>
    <CircuitName> = "conductor_12"
    <TotalAmps_re> = 0
    <TotalAmps_im> = 0
    <CircuitType> = 1
  <EndCircuit>
  <BeginCircuit>
    <CircuitName> = "conductor_13"
    <TotalAmps_re> = 0
    <TotalAmps_im> = 0
    <CircuitType> = 1
  <EndCircuit>
[NumPoints] = 67
41.524126667354857	0.26686984561877192	0	1
40.774126667354864	0.26686984561877192	0	1
41.524126667354857	0.55702203454695121	0	1
64.920322300871405	0.55702203454695143	0	1
65.474979927362284	0.0047187798397343439	0	1
65.47499999999998	2.2204460492503131e-016	0	1
65.474979927362284	-0.004718779839734788	0	1
64.920322300871405	-0.55702203454695121	0	1
41.524126667354864	-0.55702203454695143	0	1
41.524126667354871	-0.26686984561877203	0	1
40.774126667354871	-0.26686984561877214	0	1
40.761027425878346	1.0673650672535275	0	1
40.486121661510069	1.0601664064688625	0	1
40.761027425878346	-1.0673650672535275	0	1
40.486121661510069	-1.0601664064688625	0	1
63.943799928883649	0	0	3
64.38206111487753	0.4382611859938787	0	3
64.82032230087141	0	0	3
64.38206111487753	-0.4382611859938787	0	3
62.079208485116297	0	0	3
62.517469671110177	0.4382611859938787	0	3
62.955730857104058	0	0	3
62.517469671110177	-0.4382611859938787	0	3
60.214617041348944	0	0	3
60.652878227342825	0.4382611859938787	0	3
61.091139413336705	0	0	3
60.652878227342825	-0.4382611859938787	0	3
58.350025597581592	0	0	3
58.788286783575472	0.4382611859938787	0	3
59.226547969569353	0	0	3
58.788286783575472	-0.4382611859938787	0	3
56.485434153814239	0	0	3
56.92369533980812	0.4382611859938787	0	3
57.361956525802	0	0	3
56.92369533980812	-0.4382611859938787	0	3
54.620842710046887	0	0	3
55.059103896040767	0.4382611859938787	0	3
55.497365082034648	0	0	3
55.059103896040767	-0.4382611859938787	0	3
52.756251266279534	0	0	3
53.194512452273415	0.4382611859938787	0	3
53.632773638267295	0	0	3
53.194512452273415	-0.4382611859938787	0	3
50.891659822512182	0	0	3
51.329921008506062	0.4382611859938787	0	3
51.768182194499943	0	0	3
51.329921008506062	-0.4382611859938787	0	3
49.027068378744829	0	0	3
49.46532956473871	0.4382611859938787	0	3
49.90359075073259	0	0	3
49.46532956473871	-0.4382611859938787	0	3
47.162476934977477	0	0	3
47.600738120971357	0.4382611859938787	0	3
48.038999306965238	0	0	3
47.600738120971357	-0.4382611859938787	0	3
45.297885491210124	0	0	3
45.736146677204005	0.4382611859938787	0	3
46.174407863197885	0	0	3
45.736146677204005	-0.4382611859938787	0	3
43.433294047442772	0	0	3
43.871555233436652	0.4382611859938787	0	3
44.309816419430533	0	0	3
43.871555233436652	-0.4382611859938787	0	3
41.568702603675419	0	0	3
42.0069637896693	0.4382611859938787	0	3
42.44522497566318	0	0	3
42.0069637896693	-0.4382611859938787	0	3
[NumSegments] = 10
0	1	0.050000000000000003	0	0	1
2	0	0.050000000000000003	0	0	1
3	2	0.050000000000000003	0	0	3
5	4	0.050000000000000003	0	0	1
6	5	0.050000000000000003	0	0	1
8	7	0.050000000000000003	0	0	3
9	8	0.050000000000000003	0	0	3
10	9	0.050000000000000003	0	0	1
11	12	0.050000000000000003	0	0	1
14	13	0.050000000000000003	0	0	1
[NumArcSegments] = 58
4	3	89.756277994109823	1.2912303556955289	0	0	1	1
7	6	89.75627799410978	1.2912303556955351	0	0	1	1
13	10	1.1249999999999991	0.017564616650239832	0	0	0	1
10	1	0.75	0.017564616650239832	0	0	1	1
1	11	1.1249999999999998	0.017564616650239832	0	0	0	1
14	12	2.9999999999999996	0.050000000000000003	1	0	1	1
16	15	90	1.6341790393537892	0	0	3	1
17	16	90	1.6341790393537825	0	0	3	1
18	17	90	1.6341790393537892	0	0	3	1
15	18	90	1.6341790393537825	0	0	3	1
20	19	90	1.6341790393537892	0	0	3	1
21	20	90	1.6341790393537825	0	0	3	1
22	21	90	1.6341790393537892	0	0	3	1
19	22	90	1.6341790393537825	0	0	3	1
24	23	90	1.6341790393537892	0	0	3	1
25	24	90	1.6341790393537825	0	0	3	1
26	25	90	1.6341790393537892	0	0	3	1
23	26	90	1.6341790393537825	0	0	3	1
28	27	90	1.6341790393537892	0	0	3	1
29	28	90	1.6341790393537825	0	0	3	1
30	29	90	1.6341790393537892	0	0	3	1
27	30	90	1.6341790393537825	0	0	3	1
32	31	90	1.6341790393537892	0	0	3	1
33	32	90	1.6341790393537825	0	0	3	1
34	33	90	1.6341790393537892	0	0	3	1
31	34	90	1.6341790393537825	0	0	3	1
36	35	90	1.6341790393537892	0	0	3	1
37	36	90	1.6341790393537825	0	0	3	1
38	37	90	1.6341790393537892	0	0	3	1
35	38	90	1.6341790393537825	0	0	3	1
40	39	90	1.6341790393537892	0	0	3	1
41	40	90	1.6341790393537825	0	0	3	1
42	41	90	1.6341790393537892	0	0	3	1
39	42	90	1.6341790393537825	0	0	3	1
44	43	90	1.6341790393537892	0	0	3	1
45	44	90	1.6341790393537825	0	0	3	1
46	45	90	1.6341790393537892	0	0	3	1
43	46	90	1.6341790393537825	0	0	3	1
48	47	90	1.6341790393537892	0	0	3	1
49	48	90	1.6341790393537825	0	0	3	1
50	49	90	1.6341790393537892	0	0	3	1
47	50	90	1.6341790393537825	0	0	3	1
52	51	90	1.6341790393537892	0	0	3	1
53	52	90	1.6341790393537825	0	0	3	1
54	53	90	1.6341790393537892	0	0	3	1
51	54	90	1.6341790393537825	0	0	3	1
56	55	90	1.6341790393537892	0	0	3	1
57	56	90	1.6341790393537825	0	0	3	1
58	57	90	1.6341790393537892	0	0	3	1
55	58	90	1.6341790393537825	0	0	3	1
60	59	90	1.6341790393537892	0	0	3	1
61	60	90	1.6341790393537825	0	0	3	1
62	61	90	1.6341790393537892	0	0	3	1
59	62	90	1.6341790393537825	0	0	3	1
64	63	90	1.6341790393537892	0	0	3	1
65	64	90	1.6341790393537825	0	0	3	1
66	65	90	1.6341790393537892	0	0	3	1
63	66	90	1.6341790393537825	0	0	3	1
[NumHoles] = 0
[NumBlockLabels] = 15
40.637500000000003	0	7	0.050000000000000003	0	0	1	1	0
41.149999999999999	0	7	0.050000000000000003	0	0	1	1	0
64.38206111487753	0	3	0.050000000000000003	1	0	3	1	0
62.517469671110177	0	3	0.050000000000000003	2	0	3	1	0
60.652878227342825	0	3	0.050000000000000003	3	0	3	1	0
58.788286783575472	0	3	0.050000000000000003	4	0	3	1	0
56.92369533980812	0	3	0.050000000000000003	5	0	3	1	0
55.059103896040767	0	3	0.050000000000000003	6	0	3	1	0
53.194512452273415	0	3	0.050000000000000003	7	0	3	1	0
51.329921008506062	0	3	0.050000000000000003	8	0	3	1	0
49.46532956473871	0	3	0.050000000000000003	9	0	3	1	0
47.600738120971357	0	3	0.050000000000000003	10	0	3	1	0
45.736146677204005	0	3	0.050000000000000003	11	0	3	1	0
43.871555233436652	0	3	0.050000000000000003	12	0	3	1	0
42.0069637896693	0	3	0.050000000000000003	13	0	3	1	0
