[Format]      =  4.0
[Frequency]   =  10
[Precision]   =  1e-008
[MinAngle]    =  15
[DoSmartMesh] =  1
[Depth]       =  1000
[LengthUnits] =  millimeters
[ProblemType] =  planar
[Coordinates] =  cartesian
[ACSolver]    =  0
[PrevType]    =  0
[PrevSoln]    =  ""
[Comment]     =  "Add comments here."
[PointProps]   = 0
[BdryProps]   = 1
  <BeginBdry>
    <BdryName> = "A=0"
    <BdryType> = 0
    <A_0> = 0
    <A_1> = 0
    <A_2> = 0
    <Phi> = 0
    <c0> = 0
    <c0i> = 0
    <c1> = 0
    <c1i> = 0
    <Mu_ssd> = 0
    <Sigma_ssd> = 0
    <innerangle> = 0
    <outerangle> = 0
  <EndBdry>
[BlockProps]  = 7
  <BeginBlock>
    <BlockName> = "M270-35A"
    <Mu_x> = 1
    <Mu_y> = 1
    <H_c> = 0
    <H_cAngle> = 0
    <J_re> = 0
    <J_im> = 0
    <Sigma> = 0
    <d_lam> = 0
    <Phi_h> = 0
    <Phi_hx> = 0
    <Phi_hy> = 0
    <LamType> = 0
    <LamFill> = 1
    <NStrands> = 0
    <WireD> = 0
    <BHPoints> = 200
      0	0
      0.0045422769999999999	3.2767874890000002
      0.0090353559999999996	6.114592773
      0.013222249	8.4602422570000009
      0.017196487	10.462328400000001
      0.020991169	12.199266809999999
      0.024640190999999999	13.72982376
      0.028168996000000002	15.09561901
      0.031597466999999997	16.327217480000002
      0.034941272000000002	17.447599879999999
      0.038212956999999999	18.47443998
      0.041422729999999998	19.421601849999998
      0.044579012000000001	20.300151339999999
      0.047688851999999997	21.119056130000001
      0.050758219	21.885681389999998
      0.053792226999999998	22.60614816
      0.056795300999999999	23.285597330000002
      0.059771310000000001	23.928387470000001
      0.062723663999999998	24.538245379999999
      0.065655396000000005	25.11838217
      0.068569221	25.67158405
      0.071467592999999996	26.200284
      0.074352739000000001	26.70661905
      0.077226698999999996	27.19247648
      0.080091349000000006	27.65953137
      0.082948429000000004	28.109277410000001
      0.085799557999999998	28.54305239
      0.088646256000000007	28.96205934
      0.091489953999999998	29.36738437
      0.094332005999999996	29.760011540000001
      0.097173704999999999	30.140835630000002
      0.100016285	30.510672870000001
      0.102860934	30.870270300000001
      0.105708802	31.220313650000001
      0.108561001	31.561434299999998
      0.11141862	31.894215259999999
      0.114282722	32.21919639
      0.117154355	32.536878999999999
      0.120034552	32.847729870000002
      0.12292433699999999	33.152184810000001
      0.12582473199999999	33.45065185
      0.12873675200000001	33.743513989999997
      0.13166142	34.031131799999997
      0.13459976100000001	34.313845620000002
      0.137552811	34.591977620000002
      0.14052161499999999	34.865833639999998
      0.14350723800000001	35.135704879999999
      0.14651076099999999	35.401869419999997
      0.14953328699999999	35.664593680000003
      0.15257594699999999	35.924133650000002
      0.155639899	36.180736189999998
      0.158726334	36.434640119999997
      0.161836481	36.686077320000003
      0.16497160599999999	36.93527375
      0.16813302299999999	37.182450420000002
      0.17132209400000001	37.427824389999998
      0.17454023399999999	37.671609650000001
      0.17778891699999999	37.914018050000003
      0.18106968000000001	38.155260249999998
      0.18438413100000001	38.395546590000002
      0.18773395400000001	38.635088090000004
      0.191120915	38.87409736
      0.19454686800000001	39.112789630000002
      0.19801376800000001	39.351383830000003
      0.20152367299999999	39.590103640000002
      0.20507876	39.829178749999997
      0.208681327	40.068846100000002
      0.21233381500000001	40.309351300000003
      0.216038808	40.550950149999998
      0.21979905799999999	40.793910310000001
      0.22361749	41.038513199999997
      0.227497227	41.285056060000002
      0.2314416	41.53385428
      0.23545417299999999	41.785244059999997
      0.23953876299999999	42.039585369999998
      0.24369946200000001	42.297265359999997
      0.247940667	42.558702250000003
      0.25226710400000002	42.824349750000003
      0.25668386300000001	43.0947022
      0.26119642799999998	43.370300520000001
      0.26581071499999998	43.651739030000002
      0.27054201700000002	43.94020278
      0.275438138	44.23873004
      0.28051031599999998	44.548036490000001
      0.28576849199999999	44.868763260000001
      0.29122336399999998	45.201605100000002
      0.296886504	45.547319020000003
      0.30277045699999999	45.906731970000003
      0.30888884599999999	46.280749559999997
      0.31525650100000002	46.670366299999998
      0.321889598	47.076677459999999
      0.328805825	47.50089294
      0.33602457000000002	47.944353649999996
      0.34356714500000002	48.408550759999997
      0.351457032	48.895148689999999
      0.35972019	49.406012390000001
      0.36838539799999998	49.943240269999997
      0.37748466600000002	50.509203810000002
      0.38705371900000002	51.106595769999998
      0.39713256899999999	51.738489119999997
      0.40776619800000002	52.408409570000003
      0.41900536300000002	53.120425429999997
      0.43090757000000002	53.879259759999997
      0.44353822799999998	54.690431349999997
      0.45697202599999998	55.560433060000001
      0.47129457299999999	56.49695913
      0.486604327	57.509196449999997
      0.503014823	58.60819978
      0.520657166	59.807376320000003
      0.53968265500000001	61.123111049999999
      0.56026517099999995	62.575567960000001
      0.58260257699999995	64.189698669999999
      0.60691558199999995	65.996464399999994
      0.63344113800000001	68.034201780000004
      0.662415215	70.349880479999996
      0.69403682899999997	72.999622560000006
      0.72840307800000004	76.047204840000006
      0.76540934699999996	79.558509650000005
      0.80463064699999998	83.589963030000007
      0.84524547999999999	88.171938179999998
      0.88609953900000005	93.294734669999997
      0.92594964300000004	98.90894376
      0.963771241	104.9435902
      0.99893980100000002	111.3300564
      1.0312218310000001	118.0174305
      1.0606584889999999	124.9760964
      1.0874410889999999	132.19454709999999
      1.1118223309999999	139.6744898
      1.1340651580000001	147.42664859999999
      1.1544176930000001	155.46782519999999
      1.173103241	163.8190534
      1.1903180360000001	172.50453999999999
      1.2062325739999999	181.55112829999999
      1.220994358	190.98810510000001
      1.234730984	200.84723579999999
      1.2475531	211.16296399999999
      1.2595570490000001	221.97273730000001
      1.270827143	233.31744900000001
      1.281437594	245.2419931
      1.291454146	257.79594609999998
      1.3009354369999999	271.03439809999998
      1.309934159	285.01896390000002
      1.318498043	299.81902289999999
      1.326670706	315.51324579999999
      1.3344924010000001	332.19149570000002
      1.3420006879999999	349.95721329999998
      1.3492310569999999	368.93044570000001
      1.356217531	389.25173360000002
      1.362993272	411.08716509999999
      1.3695912379999999	434.63503709999998
      1.3760449050000001	460.1347695
      1.382389146	487.87903890000001
      1.3886613240000001	518.23060969999995
      1.394902732	551.64618570000005
      1.401160583	588.71104339999999
      1.4074908660000001	630.19074279999995
      1.4139626249999999	677.11087850000001
      1.420664664	730.8848299
      1.4277165590000001	793.52783980000004
      1.435287779	868.03580320000003
      1.4436331710000001	959.10175079999999
      1.453164339	1074.5891859999999
      1.464608755	1228.9034079999999
      1.479413587	1451.8548430000001
      1.5007295060000001	1812.597843
      1.531321148	2396.2922779999999
      1.5749716949999999	3340.7297119999998
      1.6351726849999999	4868.8615820000005
      1.6746062129999999	6056.7860730000002
      1.7053540309999999	7126.7301200000002
      1.7307497590000001	8135.9466300000004
      1.752580204	9119.3875740000003
      1.771845345	10098.25848
      1.789165838	11087.22133
      1.804957089	12097.58993
      1.819514077	13138.977849999999
      1.8330565510000001	14220.25051
      1.845754994	15350.15127
      1.8577465099999999	16537.778849999999
      1.869145125	17793.012470000001
      1.8800488470000001	19126.948680000001
      1.8905448170000001	20552.403480000001
      1.9007133519999999	22084.53774
      1.9106314310000001	23741.68173
      1.920376064	25546.46932
      1.930027954	27527.455720000002
      1.9396760099999999	29721.505959999999
      1.9494234969999999	32177.45292
      1.959397184	34961.935420000002
      1.969762051	38169.180130000001
      1.980746793	41938.394229999998
      1.9926918389999999	46487.096960000003
      2.0061495709999999	52181.595710000001
      2.022124024	59707.652569999998
      2.042772002	70576.241299999994
      2.0725625070000002	88161.987269999998
      2.1158769670000002	116616.322
      2.1803765140000002	162656.4026
      2.2792825830000001	237150.818
      2.3747656959999999	310949.48619999998
  <EndBlock>
  <BeginBlock>
    <BlockName> = "ShaftAir"
    <Mu_x> = 1
    <Mu_y> = 1
    <H_c> = 0
    <H_cAngle> = 0
    <J_re> = 0
    <J_im> = 0
    <Sigma> = 0
    <d_lam> = 0
    <Phi_h> = 0
    <Phi_hx> = 0
    <Phi_hy> = 0
    <LamType> = 0
    <LamFill> = 1
    <NStrands> = 0
    <WireD> = 0
    <BHPoints> = 3
      -100	-7.9577471545947675e-011
      0	0
      100	7.9577471545947675e-011
  <EndBlock>
  <BeginBlock>
    <BlockName> = "Copper"
    <Mu_x> = 1
    <Mu_y> = 1
    <H_c> = 0
    <H_cAngle> = 0
    <J_re> = 0
    <J_im> = 0
    <Sigma> = 43.939393939393931
    <d_lam> = 0
    <Phi_h> = 0
    <Phi_hx> = 0
    <Phi_hy> = 0
    <LamType> = 0
    <LamFill> = 1
    <NStrands> = 0
    <WireD> = 0
    <BHPoints> = 0
  <EndBlock>
  <BeginBlock>
    <BlockName> = "Aluminium"
    <Mu_x> = 1
    <Mu_y> = 1
    <H_c> = 0
    <H_cAngle> = 0
    <J_re> = 0
    <J_im> = 0
    <Sigma> = 29
    <d_lam> = 0
    <Phi_h> = 0
    <Phi_hx> = 0
    <Phi_hy> = 0
    <LamType> = 0
    <LamFill> = 1
    <NStrands> = 0
    <WireD> = 0
    <BHPoints> = 0
  <EndBlock>
  <BeginBlock>
    <BlockName> = "BMH-38EH"
    <Mu_x> = 1.05
    <Mu_y> = 1.05
    <H_c> = 954929.65855137201
    <H_cAngle> = 0
    <J_re> = 0
    <J_im> = 0
    <Sigma> = 0.66666666666666663
    <d_lam> = 0
    <Phi_h> = 0
    <Phi_hx> = 0
    <Phi_hy> = 0
    <LamType> = 0
    <LamFill> = 1
    <NStrands> = 0
    <WireD> = 0
    <BHPoints> = 0
  <EndBlock>
  <BeginBlock>
    <BlockName> = "DW235"
    <Mu_x> = 1
    <Mu_y> = 1
    <H_c> = 0
    <H_cAngle> = 0
    <J_re> = 0
    <J_im> = 0
    <Sigma> = 0
    <d_lam> = 0
    <Phi_h> = 0
    <Phi_hx> = 0
    <Phi_hy> = 0
    <LamType> = 0
    <LamFill> = 1
    <NStrands> = 0
    <WireD> = 0
    <BHPoints> = 0
  <EndBlock>
  <BeginBlock>
    <BlockName> = "Air"
    <Mu_x> = 1
    <Mu_y> = 1
    <H_c> = 0
    <H_cAngle> = 0
    <J_re> = 0
    <J_im> = 0
    <Sigma> = 0
    <d_lam> = 0
    <Phi_h> = 0
    <Phi_hx> = 0
    <Phi_hy> = 0
    <LamType> = 0
    <LamFill> = 1
    <NStrands> = 0
    <WireD> = 0
    <BHPoints> = 0
  <EndBlock>
[CircuitProps]  = 29
  <BeginCircuit>
    <CircuitName> = "conductor_1"
    <TotalAmps_re> = 930.34037054334442
    <TotalAmps_im> = 0
    <CircuitType> = 1
  <EndCircuit>
  <BeginCircuit>
    <CircuitName> = "conductor_2"
    <TotalAmps_re> = 930.34037054334442
    <TotalAmps_im> = 0
    <CircuitType> = 1
  <EndCircuit>
  <BeginCircuit>
    <CircuitName> = "conductor_3"
    <TotalAmps_re> = 930.34037054334442
    <TotalAmps_im> = 0
    <CircuitType> = 1
  <EndCircuit>
  <BeginCircuit>
    <CircuitName> = "conductor_4"
    <TotalAmps_re> = 930.34037054334442
    <TotalAmps_im> = 0
    <CircuitType> = 1
  <EndCircuit>
  <BeginCircuit>
    <CircuitName> = "conductor_5"
    <TotalAmps_re> = 930.34037054334442
    <TotalAmps_im> = 0
    <CircuitType> = 1
  <EndCircuit>
  <BeginCircuit>
    <CircuitName> = "conductor_6"
    <TotalAmps_re> = 930.34037054334442
    <TotalAmps_im> = 0
    <CircuitType> = 1
  <EndCircuit>
  <BeginCircuit>
    <CircuitName> = "conductor_7"
    <TotalAmps_re> = 930.34037054334442
    <TotalAmps_im> = 0
    <CircuitType> = 1
  <EndCircuit>
  <BeginCircuit>
    <CircuitName> = "conductor_8"
    <TotalAmps_re> = 930.34037054334442
    <TotalAmps_im> = 0
    <CircuitType> = 1
  <EndCircuit>
  <BeginCircuit>
    <CircuitName> = "conductor_9"
    <TotalAmps_re> = 930.34037054334442
    <TotalAmps_im> = 0
    <CircuitType> = 1
  <EndCircuit>
  <BeginCircuit>
    <CircuitName> = "conductor_10"
    <TotalAmps_re> = 930.34037054334442
    <TotalAmps_im> = 0
    <CircuitType> = 1
  <EndCircuit>
  <BeginCircuit>
    <CircuitName> = "conductor_11"
    <TotalAmps_re> = 930.34037054334442
    <TotalAmps_im> = 0
    <CircuitType> = 1
  <EndCircuit>
  <BeginCircuit>
    <CircuitName> = "conductor_12"
    <TotalAmps_re> = 930.34037054334442
    <TotalAmps_im> = 0
    <CircuitType> = 1
  <EndCircuit>
  <BeginCircuit>
    <CircuitName> = "conductor_13"
    <TotalAmps_re> = 930.34037054334442
    <TotalAmps_im> = 0
    <CircuitType> = 1
  <EndCircuit>
  <BeginCircuit>
    <CircuitName> = "conductor_14"
    <TotalAmps_re> = 930.34037054334442
    <TotalAmps_im> = 0
    <CircuitType> = 1
  <EndCircuit>
  <BeginCircuit>
    <CircuitName> = "conductor_15"
    <TotalAmps_re> = 930.34037054334442
    <TotalAmps_im> = 0
    <CircuitType> = 1
  <EndCircuit>
  <BeginCircuit>
    <CircuitName> = "conductor_16"
    <TotalAmps_re> = 930.34037054334442
    <TotalAmps_im> = 0
    <CircuitType> = 1
  <EndCircuit>
  <BeginCircuit>
    <CircuitName> = "conductor_17"
    <TotalAmps_re> = 930.34037054334442
    <TotalAmps_im> = 0
    <CircuitType> = 1
  <EndCircuit>
  <BeginCircuit>
    <CircuitName> = "conductor_18"
    <TotalAmps_re> = 930.34037054334442
    <TotalAmps_im> = 0
    <CircuitType> = 1
  <EndCircuit>
  <BeginCircuit>
    <CircuitName> = "conductor_19"
    <TotalAmps_re> = 930.34037054334442
    <TotalAmps_im> = 0
    <CircuitType> = 1
  <EndCircuit>
  <BeginCircuit>
    <CircuitName> = "conductor_20"
    <TotalAmps_re> = 930.34037054334442
    <TotalAmps_im> = 0
    <CircuitType> = 1
  <EndCircuit>
  <BeginCircuit>
    <CircuitName> = "conductor_21"
    <TotalAmps_re> = 930.34037054334442
    <TotalAmps_im> = 0
    <CircuitType> = 1
  <EndCircuit>
  <BeginCircuit>
    <CircuitName> = "conductor_22"
    <TotalAmps_re> = 930.34037054334442
    <TotalAmps_im> = 0
    <CircuitType> = 1
  <EndCircuit>
  <BeginCircuit>
    <CircuitName> = "conductor_23"
    <TotalAmps_re> = 930.34037054334442
    <TotalAmps_im> = 0
    <CircuitType> = 1
  <EndCircuit>
  <BeginCircuit>
    <CircuitName> = "conductor_24"
    <TotalAmps_re> = 930.34037054334442
    <TotalAmps_im> = 0
    <CircuitType> = 1
  <EndCircuit>
  <BeginCircuit>
    <CircuitName> = "conductor_25"
    <TotalAmps_re> = 930.34037054334442
    <TotalAmps_im> = 0
    <CircuitType> = 1
  <EndCircuit>
  <BeginCircuit>
    <CircuitName> = "conductor_26"
    <TotalAmps_re> = 930.34037054334442
    <TotalAmps_im> = 0
    <CircuitType> = 1
  <EndCircuit>
  <BeginCircuit>
    <CircuitName> = "conductor_27"
    <TotalAmps_re> = 930.34037054334442
    <TotalAmps_im> = 0
    <CircuitType> = 1
  <EndCircuit>
  <BeginCircuit>
    <CircuitName> = "conductor_28"
    <TotalAmps_re> = 930.34037054334442
    <TotalAmps_im> = 0
    <CircuitType> = 1
  <EndCircuit>
  <BeginCircuit>
    <CircuitName> = "conductor_29"
    <TotalAmps_re> = 930.34037054334442
    <TotalAmps_im> = 0
    <CircuitType> = 1
  <EndCircuit>
[NumPoints] = 131
1926.6661295563108	1.4323970369977062	0	1
1909.9994628896441	1.432397036997707	0	1
1926.9962296338244	2.6643472978616289	0	1
1985.0817621157535	2.6643472978616307	0	1
1985.1545108291359	2.5916473866854162	0	1
1985.1562499999998	0	0	1
1985.1545108291359	-2.5916473866854148	0	1
1985.0817621157537	-2.6643472978616289	0	1
1926.9962296338244	-2.6643472978616294	0	1
1926.666129556311	-1.4323970369977066	0	1
1909.9994628896441	-1.4323970369977062	0	1
1909.992897718369	5.2087105302627856	0	1
1899.9929349030895	5.1814397945022472	0	1
1909.992897718369	-5.2087105302627856	0	1
1899.9929349030895	-5.1814397945022472	0	1
1981.0681742304232	1.0667939426652406	0	3
1982.0149681730884	2.0135878853304812	0	3
1982.9617621157536	1.0667939426652406	0	3
1982.0149681730884	0.12	0	3
1981.0681742304232	-1.0667939426652406	0	3
1982.0149681730884	-0.12	0	3
1982.9617621157536	-1.0667939426652406	0	3
1982.0149681730884	-2.0135878853304812	0	3
1978.9345863450926	1.0667939426652406	0	3
1979.8813802877578	2.0135878853304812	0	3
1980.828174230423	1.0667939426652406	0	3
1979.8813802877578	0.12	0	3
1978.9345863450926	-1.0667939426652406	0	3
1979.8813802877578	-0.12	0	3
1980.828174230423	-1.0667939426652406	0	3
1979.8813802877578	-2.0135878853304812	0	3
1976.800998459762	1.0667939426652406	0	3
1977.7477924024272	2.0135878853304812	0	3
1978.6945863450924	1.0667939426652406	0	3
1977.7477924024272	0.12	0	3
1976.800998459762	-1.0667939426652406	0	3
1977.7477924024272	-0.12	0	3
1978.6945863450924	-1.0667939426652406	0	3
1977.7477924024272	-2.0135878853304812	0	3
1974.6674105744314	1.0667939426652406	0	3
1975.6142045170966	2.0135878853304812	0	3
1976.5609984597618	1.0667939426652406	0	3
1975.6142045170966	0.12	0	3
1974.6674105744314	-1.0667939426652406	0	3
1975.6142045170966	-0.12	0	3
1976.5609984597618	-1.0667939426652406	0	3
1975.6142045170966	-2.0135878853304812	0	3
1972.5338226891008	1.0667939426652406	0	3
1973.480616631766	2.0135878853304812	0	3
1974.4274105744312	1.0667939426652406	0	3
1973.480616631766	0.12	0	3
1972.5338226891008	-1.0667939426652406	0	3
1973.480616631766	-0.12	0	3
1974.4274105744312	-1.0667939426652406	0	3
1973.480616631766	-2.0135878853304812	0	3
1970.4002348037702	1.0667939426652406	0	3
1971.3470287464354	2.0135878853304812	0	3
1972.2938226891006	1.0667939426652406	0	3
1971.3470287464354	0.12	0	3
1970.4002348037702	-1.0667939426652406	0	3
1971.3470287464354	-0.12	0	3
1972.2938226891006	-1.0667939426652406	0	3
1971.3470287464354	-2.0135878853304812	0	3
1968.2666469184396	1.0667939426652406	0	3
1969.2134408611048	2.0135878853304812	0	3
1970.16023480377	1.0667939426652406	0	3
1969.2134408611048	0.12	0	3
1968.2666469184396	-1.0667939426652406	0	3
1969.2134408611048	-0.12	0	3
1970.16023480377	-1.0667939426652406	0	3
1969.2134408611048	-2.0135878853304812	0	3
1966.133059033109	1.0667939426652406	0	3
1967.0798529757742	2.0135878853304812	0	3
1968.0266469184394	1.0667939426652406	0	3
1967.0798529757742	0.12	0	3
1966.133059033109	-1.0667939426652406	0	3
1967.0798529757742	-0.12	0	3
1968.0266469184394	-1.0667939426652406	0	3
1967.0798529757742	-2.0135878853304812	0	3
1963.9994711477784	1.0667939426652406	0	3
1964.9462650904436	2.0135878853304812	0	3
1965.8930590331088	1.0667939426652406	0	3
1964.9462650904436	0.12	0	3
1963.9994711477784	-1.0667939426652406	0	3
1964.9462650904436	-0.12	0	3
1965.8930590331088	-1.0667939426652406	0	3
1964.9462650904436	-2.0135878853304812	0	3
1961.8658832624478	1.0667939426652406	0	3
1962.812677205113	2.0135878853304812	0	3
1963.7594711477782	1.0667939426652406	0	3
1962.812677205113	0.12	0	3
1961.8658832624478	-1.0667939426652406	0	3
1962.812677205113	-0.12	0	3
1963.7594711477782	-1.0667939426652406	0	3
1962.812677205113	-2.0135878853304812	0	3
1959.7322953771172	1.0667939426652406	0	3
1960.6790893197824	2.0135878853304812	0	3
1961.6258832624476	1.0667939426652406	0	3
1960.6790893197824	0.12	0	3
1959.7322953771172	-1.0667939426652406	0	3
1960.6790893197824	-0.12	0	3
1961.6258832624476	-1.0667939426652406	0	3
1960.6790893197824	-2.0135878853304812	0	3
1957.5987074917866	1.0667939426652406	0	3
1958.5455014344518	2.0135878853304812	0	3
1959.492295377117	1.0667939426652406	0	3
1958.5455014344518	0.12	0	3
1957.5987074917866	-1.0667939426652406	0	3
1958.5455014344518	-0.12	0	3
1959.492295377117	-1.0667939426652406	0	3
1958.5455014344518	-2.0135878853304812	0	3
1955.465119606456	1.0667939426652406	0	3
1956.4119135491212	2.0135878853304812	0	3
1957.3587074917864	1.0667939426652406	0	3
1956.4119135491212	0.12	0	3
1955.465119606456	-1.0667939426652406	0	3
1956.4119135491212	-0.12	0	3
1957.3587074917864	-1.0667939426652406	0	3
1956.4119135491212	-2.0135878853304812	0	3
1953.3315317211254	1.0667939426652406	0	3
1954.2783256637906	2.0135878853304812	0	3
1955.2251196064558	1.0667939426652406	0	3
1954.2783256637906	0.12	0	3
1953.3315317211254	-1.0667939426652406	0	3
1954.2783256637906	-0.12	0	3
1955.2251196064558	-1.0667939426652406	0	3
1954.2783256637906	-2.0135878853304812	0	3
1951.1979438357948	1.0667939426652406	0	3
1952.14473777846	2.0135878853304812	0	3
1953.0915317211252	1.0667939426652406	0	3
1952.14473777846	0.12	0	3
[NumSegments] = 10
0	1	0.13020833333333334	0	0	1
2	0	0.13020833333333334	0	0	1
3	2	0.13020833333333334	0	0	3
5	4	0.13020833333333334	0	0	1
6	5	0.13020833333333334	0	0	1
8	7	0.13020833333333334	0	0	3
9	8	0.13020833333333334	0	0	1
10	9	0.13020833333333334	0	0	1
11	12	0.13020833333333334	0	0	1
14	13	0.13020833333333334	0	0	1
[NumArcSegments] = 122
4	3	89.961551230425584	10	0	0	1	10
7	6	89.961551230067187	10	0	0	1	10
13	10	0.11328124999999999	0.13020833333333334	1	0	1	0.13020833333333334
10	1	0.085937500000000028	0.00097649057034458037	0	0	1	0.00097649057034458037
1	11	0.11328124999999997	0.13020833333333334	1	0	1	0.13020833333333334
14	12	0.3125	0.0009816299943990255	0	0	1	0.0009816299943990255
16	15	90	1.969908028887331	0	0	3	1.969908028887331
17	16	90	1.9699080288874546	0	0	3	1.9699080288874546
18	17	90	1.9699080288873305	0	0	3	1.9699080288873305
15	18	90	1.9699080288874546	0	0	3	1.9699080288874546
20	19	90	1.9699080288873305	0	0	3	1.9699080288873305
21	20	90	1.9699080288874546	0	0	3	1.9699080288874546
22	21	90	1.969908028887331	0	0	3	1.969908028887331
19	22	90	1.9699080288874546	0	0	3	1.9699080288874546
24	23	90	1.969908028887331	0	0	3	1.969908028887331
25	24	90	1.9699080288874546	0	0	3	1.9699080288874546
26	25	90	1.9699080288873305	0	0	3	1.9699080288873305
23	26	90	1.9699080288874546	0	0	3	1.9699080288874546
28	27	90	1.9699080288873305	0	0	3	1.9699080288873305
29	28	90	1.9699080288874546	0	0	3	1.9699080288874546
30	29	90	1.969908028887331	0	0	3	1.969908028887331
27	30	90	1.9699080288874546	0	0	3	1.9699080288874546
32	31	90	1.969908028887331	0	0	3	1.969908028887331
33	32	90	1.9699080288874546	0	0	3	1.9699080288874546
34	33	90	1.9699080288873305	0	0	3	1.9699080288873305
31	34	90	1.9699080288874546	0	0	3	1.9699080288874546
36	35	90	1.9699080288873305	0	0	3	1.9699080288873305
37	36	90	1.9699080288874546	0	0	3	1.9699080288874546
38	37	90	1.969908028887331	0	0	3	1.969908028887331
35	38	90	1.9699080288874546	0	0	3	1.9699080288874546
40	39	90	1.969908028887331	0	0	3	1.969908028887331
41	40	90	1.9699080288874546	0	0	3	1.9699080288874546
42	41	90	1.9699080288873305	0	0	3	1.9699080288873305
39	42	90	1.9699080288874546	0	0	3	1.9699080288874546
44	43	90	1.9699080288873305	0	0	3	1.9699080288873305
45	44	90	1.9699080288874546	0	0	3	1.9699080288874546
46	45	90	1.969908028887331	0	0	3	1.969908028887331
43	46	90	1.9699080288874546	0	0	3	1.9699080288874546
48	47	90	1.969908028887331	0	0	3	1.969908028887331
49	48	90	1.9699080288874546	0	0	3	1.9699080288874546
50	49	90	1.9699080288873305	0	0	3	1.9699080288873305
47	50	90	1.9699080288874546	0	0	3	1.9699080288874546
52	51	90	1.9699080288873305	0	0	3	1.9699080288873305
53	52	90	1.9699080288874546	0	0	3	1.9699080288874546
54	53	90	1.969908028887331	0	0	3	1.969908028887331
51	54	90	1.9699080288874546	0	0	3	1.9699080288874546
56	55	90	1.969908028887331	0	0	3	1.969908028887331
57	56	90	1.9699080288874546	0	0	3	1.9699080288874546
58	57	90	1.9699080288873305	0	0	3	1.9699080288873305
55	58	90	1.9699080288874546	0	0	3	1.9699080288874546
60	59	90	1.9699080288873305	0	0	3	1.9699080288873305
61	60	90	1.9699080288874546	0	0	3	1.9699080288874546
62	61	90	1.969908028887331	0	0	3	1.969908028887331
59	62	90	1.9699080288874546	0	0	3	1.9699080288874546
64	63	90	1.969908028887331	0	0	3	1.969908028887331
65	64	90	1.9699080288874546	0	0	3	1.9699080288874546
66	65	90	1.9699080288873305	0	0	3	1.9699080288873305
63	66	90	1.9699080288874546	0	0	3	1.9699080288874546
68	67	90	1.9699080288873305	0	0	3	1.9699080288873305
69	68	90	1.9699080288874546	0	0	3	1.9699080288874546
70	69	90	1.969908028887331	0	0	3	1.969908028887331
67	70	90	1.9699080288874546	0	0	3	1.9699080288874546
72	71	90	1.969908028887331	0	0	3	1.969908028887331
73	72	90	1.9699080288874546	0	0	3	1.9699080288874546
74	73	90	1.9699080288873305	0	0	3	1.9699080288873305
71	74	90	1.9699080288874546	0	0	3	1.9699080288874546
76	75	90	1.9699080288873305	0	0	3	1.9699080288873305
77	76	90	1.9699080288874546	0	0	3	1.9699080288874546
78	77	90	1.969908028887331	0	0	3	1.969908028887331
75	78	90	1.9699080288874546	0	0	3	1.9699080288874546
80	79	90	1.969908028887331	0	0	3	1.969908028887331
81	80	90	1.9699080288874546	0	0	3	1.9699080288874546
82	81	90	1.9699080288873305	0	0	3	1.9699080288873305
79	82	90	1.9699080288874546	0	0	3	1.9699080288874546
84	83	90	1.9699080288873305	0	0	3	1.9699080288873305
85	84	90	1.9699080288874546	0	0	3	1.9699080288874546
86	85	90	1.969908028887331	0	0	3	1.969908028887331
83	86	90	1.9699080288874546	0	0	3	1.9699080288874546
88	87	90	1.969908028887331	0	0	3	1.969908028887331
89	88	90	1.9699080288874546	0	0	3	1.9699080288874546
90	89	90	1.9699080288873305	0	0	3	1.9699080288873305
87	90	90	1.9699080288874546	0	0	3	1.9699080288874546
92	91	90	1.9699080288873305	0	0	3	1.9699080288873305
93	92	90	1.9699080288874546	0	0	3	1.9699080288874546
94	93	90	1.969908028887331	0	0	3	1.969908028887331
91	94	90	1.9699080288874546	0	0	3	1.9699080288874546
96	95	90	1.969908028887331	0	0	3	1.969908028887331
97	96	90	1.9699080288874546	0	0	3	1.9699080288874546
98	97	90	1.9699080288873305	0	0	3	1.9699080288873305
95	98	90	1.9699080288874546	0	0	3	1.9699080288874546
100	99	90	1.9699080288873305	0	0	3	1.9699080288873305
101	100	90	1.9699080288874546	0	0	3	1.9699080288874546
102	101	90	1.969908028887331	0	0	3	1.969908028887331
99	102	90	1.9699080288874546	0	0	3	1.9699080288874546
104	103	90	1.969908028887331	0	0	3	1.969908028887331
105	104	90	1.9699080288874546	0	0	3	1.9699080288874546
106	105	90	1.9699080288873305	0	0	3	1.9699080288873305
103	106	90	1.9699080288874546	0	0	3	1.9699080288874546
108	107	90	1.9699080288873305	0	0	3	1.9699080288873305
109	108	90	1.9699080288874546	0	0	3	1.9699080288874546
110	109	90	1.969908028887331	0	0	3	1.969908028887331
107	110	90	1.9699080288874546	0	0	3	1.9699080288874546
112	111	90	1.969908028887331	0	0	3	1.969908028887331
113	112	90	1.9699080288874546	0	0	3	1.9699080288874546
114	113	90	1.9699080288873305	0	0	3	1.9699080288873305
111	114	90	1.9699080288874546	0	0	3	1.9699080288874546
116	115	90	1.9699080288873305	0	0	3	1.9699080288873305
117	116	90	1.9699080288874546	0	0	3	1.9699080288874546
118	117	90	1.969908028887331	0	0	3	1.969908028887331
115	118	90	1.9699080288874546	0	0	3	1.9699080288874546
120	119	90	1.969908028887331	0	0	3	1.969908028887331
121	120	90	1.9699080288874546	0	0	3	1.9699080288874546
122	121	90	1.9699080288873305	0	0	3	1.9699080288873305
119	122	90	1.9699080288874546	0	0	3	1.9699080288874546
124	123	90	1.9699080288873305	0	0	3	1.9699080288873305
125	124	90	1.9699080288874546	0	0	3	1.9699080288874546
126	125	90	1.969908028887331	0	0	3	1.969908028887331
123	126	90	1.9699080288874546	0	0	3	1.9699080288874546
128	127	90	1.969908028887331	0	0	3	1.969908028887331
129	128	90	1.9699080288874546	0	0	3	1.9699080288874546
130	129	90	1.9699080288873305	0	0	3	1.9699080288873305
127	130	90	1.9699080288874546	0	0	3	1.9699080288874546
[NumHoles] = 0
[NumBlockLabels] = 31
1905	0	7	0.13020833333333334	0	0	1	1	0
1918.3333333333333	0	7	0.13020833333333334	0	0	1	1	0
1982.0149681730884	1.0667939426652406	3	0.13020833333333334	1	0	3	1	0
1982.0149681730884	-1.0667939426652406	3	0.13020833333333334	2	0	3	1	0
1979.8813802877578	1.0667939426652406	3	0.13020833333333334	3	0	3	1	0
1979.8813802877578	-1.0667939426652406	3	0.13020833333333334	4	0	3	1	0
1977.7477924024272	1.0667939426652406	3	0.13020833333333334	5	0	3	1	0
1977.7477924024272	-1.0667939426652406	3	0.13020833333333334	6	0	3	1	0
1975.6142045170966	1.0667939426652406	3	0.13020833333333334	7	0	3	1	0
1975.6142045170966	-1.0667939426652406	3	0.13020833333333334	8	0	3	1	0
1973.480616631766	1.0667939426652406	3	0.13020833333333334	9	0	3	1	0
1973.480616631766	-1.0667939426652406	3	0.13020833333333334	10	0	3	1	0
1971.3470287464354	1.0667939426652406	3	0.13020833333333334	11	0	3	1	0
1971.3470287464354	-1.0667939426652406	3	0.13020833333333334	12	0	3	1	0
1969.2134408611048	1.0667939426652406	3	0.13020833333333334	13	0	3	1	0
1969.2134408611048	-1.0667939426652406	3	0.13020833333333334	14	0	3	1	0
1967.0798529757742	1.0667939426652406	3	0.13020833333333334	15	0	3	1	0
1967.0798529757742	-1.0667939426652406	3	0.13020833333333334	16	0	3	1	0
1964.9462650904436	1.0667939426652406	3	0.13020833333333334	17	0	3	1	0
1964.9462650904436	-1.0667939426652406	3	0.13020833333333334	18	0	3	1	0
1962.812677205113	1.0667939426652406	3	0.13020833333333334	19	0	3	1	0
1962.812677205113	-1.0667939426652406	3	0.13020833333333334	20	0	3	1	0
1960.6790893197824	1.0667939426652406	3	0.13020833333333334	21	0	3	1	0
1960.6790893197824	-1.0667939426652406	3	0.13020833333333334	22	0	3	1	0
1958.5455014344518	1.0667939426652406	3	0.13020833333333334	23	0	3	1	0
1958.5455014344518	-1.0667939426652406	3	0.13020833333333334	24	0	3	1	0
1956.4119135491212	1.0667939426652406	3	0.13020833333333334	25	0	3	1	0
1956.4119135491212	-1.0667939426652406	3	0.13020833333333334	26	0	3	1	0
1954.2783256637906	1.0667939426652406	3	0.13020833333333334	27	0	3	1	0
1954.2783256637906	-1.0667939426652406	3	0.13020833333333334	28	0	3	1	0
1952.14473777846	1.0667939426652406	3	0.13020833333333334	29	0	3	1	0
