[Format]      =  4.0
[Frequency]   =  0
[Precision]   =  1e-008
[MinAngle]    =  15
[DoSmartMesh] =  1
[Depth]       =  300
[LengthUnits] =  millimeters
[ProblemType] =  planar
[Coordinates] =  cartesian
[ACSolver]    =  0
[PrevType]    =  0
[PrevSoln]    =  ""
[Comment]     =  "Add comments here."
[PointProps]   = 0
[BdryProps]   = 11
  <BeginBdry>
    <BdryName> = "A=0"
    <BdryType> = 0
    <A_0> = 0
    <A_1> = 0
    <A_2> = 0
    <Phi> = 0
    <c0> = 0
    <c0i> = 0
    <c1> = 0
    <c1i> = 0
    <Mu_ssd> = 0
    <Sigma_ssd> = 0
    <innerangle> = 0
    <outerangle> = 0
  <EndBdry>
  <BeginBdry>
    <BdryName> = "APr1"
    <BdryType> = 5
    <A_0> = 0
    <A_1> = 0
    <A_2> = 0
    <Phi> = 0
    <c0> = 0
    <c0i> = 0
    <c1> = 0
    <c1i> = 0
    <Mu_ssd> = 0
    <Sigma_ssd> = 0
    <innerangle> = 0
    <outerangle> = 0
  <EndBdry>
  <BeginBdry>
    <BdryName> = "APr2"
    <BdryType> = 5
    <A_0> = 0
    <A_1> = 0
    <A_2> = 0
    <Phi> = 0
    <c0> = 0
    <c0i> = 0
    <c1> = 0
    <c1i> = 0
    <Mu_ssd> = 0
    <Sigma_ssd> = 0
    <innerangle> = 0
    <outerangle> = 0
  <EndBdry>
  <BeginBdry>
    <BdryName> = "APr3"
    <BdryType> = 5
    <A_0> = 0
    <A_1> = 0
    <A_2> = 0
    <Phi> = 0
    <c0> = 0
    <c0i> = 0
    <c1> = 0
    <c1i> = 0
    <Mu_ssd> = 0
    <Sigma_ssd> = 0
    <innerangle> = 0
    <outerangle> = 0
  <EndBdry>
  <BeginBdry>
    <BdryName> = "APg1"
    <BdryType> = 5
    <A_0> = 0
    <A_1> = 0
    <A_2> = 0
    <Phi> = 0
    <c0> = 0
    <c0i> = 0
    <c1> = 0
    <c1i> = 0
    <Mu_ssd> = 0
    <Sigma_ssd> = 0
    <innerangle> = 0
    <outerangle> = 0
  <EndBdry>
  <BeginBdry>
    <BdryName> = "APg2"
    <BdryType> = 5
    <A_0> = 0
    <A_1> = 0
    <A_2> = 0
    <Phi> = 0
    <c0> = 0
    <c0i> = 0
    <c1> = 0
    <c1i> = 0
    <Mu_ssd> = 0
    <Sigma_ssd> = 0
    <innerangle> = 0
    <outerangle> = 0
  <EndBdry>
  <BeginBdry>
    <BdryName> = "APg3"
    <BdryType> = 5
    <A_0> = 0
    <A_1> = 0
    <A_2> = 0
    <Phi> = 0
    <c0> = 0
    <c0i> = 0
    <c1> = 0
    <c1i> = 0
    <Mu_ssd> = 0
    <Sigma_ssd> = 0
    <innerangle> = 0
    <outerangle> = 0
  <EndBdry>
  <BeginBdry>
    <BdryName> = "APs1"
    <BdryType> = 5
    <A_0> = 0
    <A_1> = 0
    <A_2> = 0
    <Phi> = 0
    <c0> = 0
    <c0i> = 0
    <c1> = 0
    <c1i> = 0
    <Mu_ssd> = 0
    <Sigma_ssd> = 0
    <innerangle> = 0
    <outerangle> = 0
  <EndBdry>
  <BeginBdry>
    <BdryName> = "APs2"
    <BdryType> = 5
    <A_0> = 0
    <A_1> = 0
    <A_2> = 0
    <Phi> = 0
    <c0> = 0
    <c0i> = 0
    <c1> = 0
    <c1i> = 0
    <Mu_ssd> = 0
    <Sigma_ssd> = 0
    <innerangle> = 0
    <outerangle> = 0
  <EndBdry>
  <BeginBdry>
    <BdryName> = "APs3"
    <BdryType> = 5
    <A_0> = 0
    <A_1> = 0
    <A_2> = 0
    <Phi> = 0
    <c0> = 0
    <c0i> = 0
    <c1> = 0
    <c1i> = 0
    <Mu_ssd> = 0
    <Sigma_ssd> = 0
    <innerangle> = 0
    <outerangle> = 0
  <EndBdry>
  <BeginBdry>
    <BdryName> = "AGap"
    <BdryType> = 7
    <A_0> = 0
    <A_1> = 0
    <A_2> = 0
    <Phi> = 0
    <c0> = 0
    <c0i> = 0
    <c1> = 0
    <c1i> = 0
    <Mu_ssd> = 0
    <Sigma_ssd> = 0
    <innerangle> = 1.6666666666666667
    <outerangle> = 0
  <EndBdry>
[BlockProps]  = 7
  <BeginBlock>
    <BlockName> = "M600-50A"
    <Mu_x> = 1
    <Mu_y> = 1
    <H_c> = 0
    <H_cAngle> = 0
    <J_re> = 0
    <J_im> = 0
    <Sigma> = 0
    <d_lam> = 0
    <Phi_h> = 0
    <Phi_hx> = 0
    <Phi_hy> = 0
    <LamType> = 0
    <LamFill> = 1
    <NStrands> = 0
    <WireD> = 0
    <BHPoints> = 208
      0	0
      0.0061294119999999999	8.2635015680000006
      0.012398954	15.54584049
      0.018188152999999999	21.42337126
      0.023698273999999998	26.396066560000001
      0.028962854999999999	30.670770340000001
      0.034031080999999998	34.409892589999998
      0.038937833999999998	37.72521158
      0.043710287	40.697869570000002
      0.048369641999999997	43.388214720000001
      0.052932743999999997	45.842257519999997
      0.057413198999999998	48.095830579999998
      0.061822165999999998	50.17736026
      0.066168929000000001	52.109762629999999
      0.070461307000000001	53.911772880000001
      0.074705967999999998	55.598898519999999
      0.078908651999999996	57.184116670000002
      0.083074354000000003	58.67839326
      0.087207454000000004	60.091076020000003
      0.091311829999999997	61.430196219999999
      0.095390935999999996	62.702703470000003
      0.099447875000000005	63.914650479999999
      0.10348545000000001	65.071340269999993
      0.107506212	66.177444339999994
      0.111512495	67.237098649999993
      0.115506446	68.253982050000005
      0.119490053	69.231381029999994
      0.123465163	70.172243330000001
      0.127433505	71.079222909999999
      0.131396704	71.954717669999994
      0.13535628999999999	72.800901379999999
      0.139313718	73.619750830000001
      0.14327037200000001	74.413069070000006
      0.147227575	75.182505329999998
      0.151186599	75.929572239999999
      0.15514867099999999	76.655660710000006
      0.15911497799999999	77.362052919999996
      0.16308667299999999	78.049933670000001
      0.167064883	78.720400249999997
      0.171050709	79.374471249999999
      0.17504523399999999	80.013094219999999
      0.17904952399999999	80.637152520000001
      0.183064634	81.247471390000001
      0.18709161099999999	81.844823349999999
      0.19113149500000001	82.429933079999998
      0.19518532499999999	83.003481679999993
      0.19925414	83.566110629999997
      0.203338983	84.118425299999998
      0.20744090200000001	84.6609981
      0.21156095499999999	85.194371430000004
      0.21570021	85.719060249999998
      0.21985974999999999	86.23555451
      0.224040674	86.744321339999999
      0.228244101	87.245807119999995
      0.232471172	87.740439260000002
      0.23672305199999999	88.228628009999994
      0.241000933	88.710768049999999
      0.245306038	89.187239969999993
      0.249639624	89.658411700000002
      0.25400298399999999	90.124639849999994
      0.258397449	90.586270990000003
      0.26282439699999999	91.043642790000007
      0.267285249	91.497085290000001
      0.27178147899999999	91.946921900000007
      0.27631461499999999	92.393470609999994
      0.28088624499999998	92.837044969999994
      0.28549801899999999	93.277955219999996
      0.29015165799999998	93.716509279999997
      0.294848956	94.153013889999997
      0.299591787	94.587775629999996
      0.30438211199999998	95.021102040000002
      0.30922198299999998	95.45330276
      0.31411355600000002	95.884690719999995
      0.31905909100000002	96.315583349999997
      0.324060968	96.746303900000001
      0.32912169099999999	97.177182860000002
      0.33424390300000001	97.608559369999995
      0.33943039400000002	98.040782919999998
      0.34468411100000002	98.474215020000003
      0.35000818	98.909231149999997
      0.35540591100000002	99.346222819999994
      0.36088082199999999	99.785599880000007
      0.366436651	100.2277931
      0.37207738099999998	100.67325700000001
      0.37780725700000001	101.1224732
      0.38363081700000001	101.57595360000001
      0.389552911	102.03424510000001
      0.39557873700000001	102.4979336
      0.401713873	102.9676498
      0.40796431599999999	103.44407510000001
      0.41433652900000001	103.9279489
      0.420837509	104.4200783
      0.42747497499999998	104.9213567
      0.43425898400000001	105.43288579999999
      0.44146202099999998	105.9749185
      0.44856258700000001	106.5079061
      0.45587690400000003	107.05707719999999
      0.46342101400000002	107.62377619999999
      0.47120716099999999	108.2090887
      0.47924850299999999	108.8142005
      0.48755929799999997	109.4404164
      0.496155022	110.0891769
      0.50505251799999995	110.7620768
      0.51427015700000001	111.4608879
      0.52382802100000003	112.1875854
      0.53374812500000002	112.944379
      0.54405466000000002	113.73375040000001
      0.55477427700000004	114.558498
      0.56593642099999997	115.4217907
      0.57757370900000005	116.3272333
      0.58972237000000005	117.2789456
      0.60242275199999995	118.28165920000001
      0.61571989900000001	119.3408371
      0.62966422099999997	120.4628209
      0.64431222899999996	121.65501310000001
      0.65972736300000001	122.92610569999999
      0.67598086099999999	124.28636400000001
      0.69315263800000004	125.74798269999999
      0.71133206000000004	127.3255305
      0.73061842099999996	129.03650049999999
      0.75112078999999998	130.90198509999999
      0.772956635	132.94748089999999
      0.79624826999999998	135.20380520000001
      0.82111564500000001	137.70804709999999
      0.84766332799999999	140.50436830000001
      0.87595905799999996	143.6442744
      0.90600166900000001	147.18571779999999
      0.93767904199999996	151.19014369999999
      0.97072398500000001	155.71669249999999
      1.0046871660000001	160.81373919999999
      1.0389539999999999	166.5100477
      1.0728218	172.80985770000001
      1.1056189649999999	179.69557180000001
      1.1368151129999999	187.13741469999999
      1.166076154	195.10516089999999
      1.1932571599999999	203.57694960000001
      1.2183581130000001	212.54344710000001
      1.2414717689999999	222.00841339999999
      1.262740478	231.98749659999999
      1.2823264919999999	242.50660869999999
      1.3003940249999999	253.6005657
      1.317099609	265.31223169999998
      1.332587655	277.69219570000001
      1.346989049	290.79894300000001
      1.360421377	304.69948410000001
      1.3729899480000001	319.47042970000001
      1.3847891750000001	335.19953839999999
      1.395904035	351.98780690000001
      1.406411522	369.95222330000001
      1.416382027	389.22936779999998
      1.4258806550000001	409.98013700000001
      1.4349684949999999	432.3959911
      1.443703884	456.70731569999998
      1.452143746	483.19477810000001
      1.460345062	512.205018
      1.468366627	544.17275689999997
      1.476271267	579.65265699999998
      1.484128812	619.36640990000001
      1.4920203320000001	664.27439319999996
      1.5000444559999999	715.68841520000001
      1.5083273020000001	775.45608200000004
      1.517038858	846.27605440000002
      1.52642144	932.26565330000005
      1.5368418420000001	1040.044543
      1.5488919160000001	1180.938134
      1.5635876129999999	1375.704356
      1.5827254589999999	1664.518061
      1.609038255	2120.3213700000001
      1.6429877180000001	2803.4219309999999
      1.6763000130000001	3588.174364
      1.7038913950000001	4346.5592559999996
      1.7268422349999999	5076.0393119999999
      1.746445904	5791.6494789999997
      1.7635818270000001	6506.5344940000004
      1.778835427	7231.1495919999998
      1.792609184	7974.1327339999998
      1.805191346	8743.1111569999994
      1.8167966790000001	9545.295204
      1.8275911469999999	10387.927960000001
      1.837707435	11278.663500000001
      1.8472551399999999	12225.930109999999
      1.8563277979999999	13239.325269999999
      1.865008022	14330.08987
      1.873371527	15511.71947
      1.8814906259999999	16800.793989999998
      1.88943763	18218.15107
      1.8972886259999999	19790.607090000001
      1.905128269	21553.57647
      1.913056538	23555.22162
      1.921199232	25863.341659999998
      1.92972568	28577.465530000001
      1.938881257	31851.611560000001
      1.949053186	35941.14198
      1.960921235	41311.621829999996
      1.975868577	48939.738250000002
      1.9972472800000001	61282.289870000001
      2.0280781640000001	81252.957920000001
      2.0737002590000002	113566.1776
      2.1433819129999998	165850.06529999999
      2.250195926	248560.18210000001
      2.3541325240000002	331270.29889999999
      2.4580691219999999	413980.41570000001
      2.5620057200000002	496690.53249999997
      2.665942319	579400.64930000005
      2.7698789170000002	662110.76610000001
      2.873815515	744820.88289999997
      2.9777521130000002	827530.99970000004
      3.081688711	910241.1165
  <EndBlock>
  <BeginBlock>
    <BlockName> = "ShaftAir"
    <Mu_x> = 1
    <Mu_y> = 1
    <H_c> = 0
    <H_cAngle> = 0
    <J_re> = 0
    <J_im> = 0
    <Sigma> = 0
    <d_lam> = 0
    <Phi_h> = 0
    <Phi_hx> = 0
    <Phi_hy> = 0
    <LamType> = 0
    <LamFill> = 1
    <NStrands> = 0
    <WireD> = 0
    <BHPoints> = 3
      -100	-7.9577471545947675e-011
      0	0
      100	7.9577471545947675e-011
  <EndBlock>
  <BeginBlock>
    <BlockName> = "Copper"
    <Mu_x> = 1
    <Mu_y> = 1
    <H_c> = 0
    <H_cAngle> = 0
    <J_re> = 0
    <J_im> = 0
    <Sigma> = 58
    <d_lam> = 0
    <Phi_h> = 0
    <Phi_hx> = 0
    <Phi_hy> = 0
    <LamType> = 0
    <LamFill> = 1
    <NStrands> = 0
    <WireD> = 0
    <BHPoints> = 0
  <EndBlock>
  <BeginBlock>
    <BlockName> = "Aluminium"
    <Mu_x> = 1
    <Mu_y> = 1
    <H_c> = 0
    <H_cAngle> = 0
    <J_re> = 0
    <J_im> = 0
    <Sigma> = 29
    <d_lam> = 0
    <Phi_h> = 0
    <Phi_hx> = 0
    <Phi_hy> = 0
    <LamType> = 0
    <LamFill> = 1
    <NStrands> = 0
    <WireD> = 0
    <BHPoints> = 0
  <EndBlock>
  <BeginBlock>
    <BlockName> = "Air"
    <Mu_x> = 1
    <Mu_y> = 1
    <H_c> = 0
    <H_cAngle> = 0
    <J_re> = 0
    <J_im> = 0
    <Sigma> = 0
    <d_lam> = 0
    <Phi_h> = 0
    <Phi_hx> = 0
    <Phi_hy> = 0
    <LamType> = 0
    <LamFill> = 1
    <NStrands> = 0
    <WireD> = 0
    <BHPoints> = 0
  <EndBlock>
  <BeginBlock>
    <BlockName> = "DW235"
    <Mu_x> = 1
    <Mu_y> = 1
    <H_c> = 0
    <H_cAngle> = 0
    <J_re> = 0
    <J_im> = 0
    <Sigma> = 0
    <d_lam> = 0
    <Phi_h> = 0
    <Phi_hx> = 0
    <Phi_hy> = 0
    <LamType> = 0
    <LamFill> = 1
    <NStrands> = 0
    <WireD> = 0
    <BHPoints> = 0
  <EndBlock>
  <BeginBlock>
    <BlockName> = "Air"
    <Mu_x> = 1
    <Mu_y> = 1
    <H_c> = 0
    <H_cAngle> = 0
    <J_re> = 0
    <J_im> = 0
    <Sigma> = 0
    <d_lam> = 0
    <Phi_h> = 0
    <Phi_hx> = 0
    <Phi_hy> = 0
    <LamType> = 0
    <LamFill> = 1
    <NStrands> = 0
    <WireD> = 0
    <BHPoints> = 0
  <EndBlock>
[CircuitProps]  = 6
  <BeginCircuit>
    <CircuitName> = "fase1"
    <TotalAmps_re> = 1760.1341401784618
    <TotalAmps_im> = 0
    <CircuitType> = 1
  <EndCircuit>
  <BeginCircuit>
    <CircuitName> = "fase2"
    <TotalAmps_re> = -652.40569115618598
    <TotalAmps_im> = -0
    <CircuitType> = 1
  <EndCircuit>
  <BeginCircuit>
    <CircuitName> = "fase3"
    <TotalAmps_re> = -1107.7284490222751
    <TotalAmps_im> = -0
    <CircuitType> = 1
  <EndCircuit>
  <BeginCircuit>
    <CircuitName> = "fase1n"
    <TotalAmps_re> = -1760.1341401784618
    <TotalAmps_im> = -0
    <CircuitType> = 1
  <EndCircuit>
  <BeginCircuit>
    <CircuitName> = "fase2n"
    <TotalAmps_re> = 652.40569115618598
    <TotalAmps_im> = 0
    <CircuitType> = 1
  <EndCircuit>
  <BeginCircuit>
    <CircuitName> = "fase3n"
    <TotalAmps_re> = 1107.7284490222751
    <TotalAmps_im> = 0
    <CircuitType> = 1
  <EndCircuit>
[NumPoints] = 141
1415.9508735695329	74.206840857661462	0	2
1396.8718370624945	73.206950923467502	0	2
1414.599135787385	99.998413958880761	0	2
1414.5606354360373	100.73416471138241	0	2
1414.455923139654	100.82578112332159	0	2
1395.5308905670211	98.834496492815191	0	2
1394.1076698309569	73.06208705729567	0	2
1378.260261611294	72.231559585111327	0	2
1392.6001028106887	101.82817943694224	0	2
1398.7174618265105	102.47113977814575	0	2
1413.0706139791685	119.83573412735393	0	2
1412.9626897609342	119.92494166288631	0	2
1375.9645534482397	116.03628083948527	0	2
1372.2644660923809	71.917333256929879	0	2
1359.6351471924852	71.255458699529001	0	2
1369.6608516808922	121.59725572468309	0	2
1400.1021560934491	124.79676574545454	0	2
1411.354152950016	138.5951594250277	0	2
1411.2449252039476	138.68422995426613	0	2
1356.4034372784133	132.92015730502101	0	2
1417.3026113516808	48.415267756442162	0	2
1417.3411117030284	47.679517003940518	0	2
1417.2422887443645	47.581576946961064	0	2
1398.2127835579679	47.579405354119807	0	2
1395.6152368512251	44.295994677649105	0	2
1401.7662919906963	44.295994677649105	0	2
1417.8559104366557	28.526838330737519	0	2
1417.7579021651823	28.426838330737354	0	2
1380.5559697743483	28.426838330737382	0	2
1374.8680805038696	22.237410789176671	0	2
1405.477064131409	22.237410789176664	0	2
1418.1097462587675	9.6907600940393337	0	2
1418.0104272792644	9.5907600940369804	0	2
1362.8668571065571	9.5907600940369804	0	2
1425	0	0	20
428.56999999999999	0	0	2
1417.1937008997895	148.95306015640617	0	20
426.22224869798089	44.797763502618238	0	2
0	0	0	2
1500	0	0	1
1426	0	0	20
1491.78284305241	156.79269490148019	0	1
1418.1882227951578	149.05758861967382	0	20
1436.1940548556988	16.223183058666518	0	1
1436.2262519924636	12.533756618755246	0	1
1436.2352945109635	16.313675223126904	0	1
1458.3376329678961	16.699472975958102	0	1
1461.9399205840548	13.195083205845785	0	1
1461.9443315198184	12.758194898622692	0	1
1461.9475460081669	12.321296150161187	0	1
1458.4069670724432	8.7545715280035576	0	1
1436.3012618095274	8.7545715280035576	0	1
1436.2584491292284	8.8443301788439754	0	1
1449.1165103365429	8.7545715280035576	0	1
1449.0485912135564	16.537332149015178	0	1
1425.9087322184675	16.133424407826102	0	1
1425.9731264919972	8.7545715280035594	0	1
1435.692181960336	41.285754557459839	0	1
1435.7887635630707	37.597451952582439	0	1
1435.7318360285678	41.376952670750285	0	1
1457.8240750931132	42.148430658679857	0	1
1461.4869740980027	38.70744321168462	0	1
1461.4990091142647	38.270698426110549	0	1
1461.5098480475613	37.833922320001747	0	1
1458.0320562869142	34.205949304670355	0	1
1435.9297178299814	33.820151551839146	0	1
1435.8853451658053	33.909149347705039	0	1
1448.7430145325743	34.043808477727424	0	1
1448.5392778524372	41.824198394460595	0	1
1425.4099923320161	41.016505946293151	0	1
1425.6031555374855	33.639900736538351	0	1
1434.7529833184853	66.335750015470879	0	1
1434.9139199674983	62.649694738330183	0	1
1434.7910397206711	66.4276262977626	0	1
1456.8664498827982	67.584549521121971	0	1
1460.588844521898	64.208012555353747	0	1
1460.6084999526761	63.77154432812123	0	1
1460.6269600292762	63.335023910598196	0	1
1457.2130148127667	59.646907617818478	0	1
1435.1207757482209	58.875429629888892	0	1
1435.0748566165112	58.963639461189487	0	1
1447.9282175720903	59.322675353599195	0	1
1447.5887253949691	67.098324583914945	0	1
1424.4770587536436	65.887093459713142	0	1
1424.7989320516692	58.514982905431758	0	1
1433.3767450191517	91.365538961418366	0	1
1433.6019876915805	87.682853820159409	0	1
1433.4131921629426	91.458065426305765	0	1
1455.4650490388665	93.000081475073713	0	1
1459.2458054347101	89.689023516401534	0	1
1459.2730752927696	89.25296479996075	0	1
1459.2991508895554	88.816833039371332	0	1
1455.9500921379677	85.069696905093636	0	1
1433.8746819758403	83.912773681734265	0	1
1433.827230364009	84.000168678900465	0	1
1446.6723676501381	84.583471967886595	0	1
1446.1972233886386	92.352011973704975	0	1
1423.1102156639556	90.737611126202694	0	1
1423.5607010088129	83.372240843684807	0	1
1431.563886277853	116.36749707912034	0	1
1431.8533663625974	112.68930385531215	0	1
1431.5987130610959	116.46064554214593	0	1
1453.6202994415912	118.38728470329613	0	1
1457.4582659391554	115.14271433204915	0	1
1457.4931419178331	114.70719795410932	0	1
1457.5268250919253	114.27158770041268	0	1
1454.2436729609981	110.46657313860287	0	1
1432.1918160850739	108.92455708983491	0	1
1432.142846447342	109.01111063150394	0	1
1444.9758473107697	109.8185036372341	0	1
1444.365195698437	117.57756804601379	0	1
1421.3098794165981	115.56048923734824	0	1
1421.888839586087	108.20410278973183	0	1
1429.3149593089233	141.33400852993475	0	1
1429.6685886275454	137.66142763686474	0	1
1429.3481551230429	141.4277506171743	0	1
1451.3327630195699	143.73842601775453	0	1
1455.2267705370803	140.56133156149869	0	1
1455.2692420128153	140.12649018456747	0	1
1455.3105225039931	139.69153412886675	0	1
1452.0942770736704	135.82980018382034	0	1
1430.0726906931748	133.90316102267008	0	1
1430.0222179461678	133.98884674379471	0	1
1442.8391733305157	135.02008352653795	0	1
1442.0932003777459	142.76730885209631	0	1
1419.0765984114328	140.34816650401248	0	1
1419.783857048677	133.00300471787241	0	1
1499.771542734587	26.178609655925268	0	1
1425.782813293014	24.887131579566287	0	1
1499.0862405286437	52.349245053751453	0	1
1425.1313193292306	49.76668229776638	0	1
1497.9443021318607	78.503934364415755	0	1
1424.0457165600224	74.631073602437908	0	1
1496.3460753897364	104.63471061618797	0	1
1422.5263356705093	99.472731559122707	0	1
1494.2920471376183	130.73361412148728	0	1
1420.5736394788291	124.28408915816057	0	1
1425.6666666666667	0	0	20
1417.8567154967018	149.02274579858462	0	20
1425.3333333333333	0	0	20
1417.5252081982455	148.98790297749539	0	20
[NumSegments] = 118
0	1	2.8571428571428568	0	0	2
2	0	2.8571428571428568	0	0	2
5	4	2.8571428571428568	0	0	2
1	5	2.8571428571428568	0	0	2
6	7	2.8571428571428568	0	0	2
8	6	2.8571428571428568	0	0	2
9	8	2.8571428571428568	0	0	2
12	11	2.8571428571428568	0	0	2
7	12	2.8571428571428568	0	0	2
13	14	2.8571428571428568	0	0	2
15	13	2.8571428571428568	0	0	2
16	15	2.8571428571428568	0	0	2
19	18	2.8571428571428568	0	0	2
14	19	2.8571428571428568	0	0	2
20	0	2.8571428571428568	0	0	2
23	22	2.8571428571428568	0	0	2
1	23	2.8571428571428568	0	0	2
24	6	2.8571428571428568	0	0	2
25	24	2.8571428571428568	0	0	2
28	27	2.8571428571428568	0	0	2
7	28	2.8571428571428568	0	0	2
29	13	2.8571428571428568	0	0	2
30	29	2.8571428571428568	0	0	2
33	32	2.8571428571428568	0	0	2
14	33	2.8571428571428568	0	0	2
34	35	-1	4	0	2
37	36	-1	4	0	2
35	38	-1	2	0	2
38	37	-1	2	0	2
39	40	-1	10	0	1
42	41	-1	10	0	1
43	44	2.8571428571428568	0	0	1
45	43	2.8571428571428568	0	0	1
46	54	2.8571428571428568	0	0	1
48	47	2.8571428571428568	0	0	1
49	48	2.8571428571428568	0	0	1
51	53	2.8571428571428568	0	0	1
52	51	2.8571428571428568	0	0	1
44	52	2.8571428571428568	0	0	1
53	50	2.8571428571428568	0	0	1
54	45	2.8571428571428568	0	0	1
53	54	2.8571428571428568	0	0	1
43	55	2.8571428571428568	0	0	1
56	52	2.8571428571428568	0	0	1
57	58	2.8571428571428568	0	0	1
59	57	2.8571428571428568	0	0	1
60	68	2.8571428571428568	0	0	1
62	61	2.8571428571428568	0	0	1
63	62	2.8571428571428568	0	0	1
65	67	2.8571428571428568	0	0	1
66	65	2.8571428571428568	0	0	1
58	66	2.8571428571428568	0	0	1
67	64	2.8571428571428568	0	0	1
68	59	2.8571428571428568	0	0	1
67	68	2.8571428571428568	0	0	1
57	69	2.8571428571428568	0	0	1
70	66	2.8571428571428568	0	0	1
71	72	2.8571428571428568	0	0	1
73	71	2.8571428571428568	0	0	1
74	82	2.8571428571428568	0	0	1
76	75	2.8571428571428568	0	0	1
77	76	2.8571428571428568	0	0	1
79	81	2.8571428571428568	0	0	1
80	79	2.8571428571428568	0	0	1
72	80	2.8571428571428568	0	0	1
81	78	2.8571428571428568	0	0	1
82	73	2.8571428571428568	0	0	1
81	82	2.8571428571428568	0	0	1
71	83	2.8571428571428568	0	0	1
84	80	2.8571428571428568	0	0	1
85	86	2.8571428571428568	0	0	1
87	85	2.8571428571428568	0	0	1
88	96	2.8571428571428568	0	0	1
90	89	2.8571428571428568	0	0	1
91	90	2.8571428571428568	0	0	1
93	95	2.8571428571428568	0	0	1
94	93	2.8571428571428568	0	0	1
86	94	2.8571428571428568	0	0	1
95	92	2.8571428571428568	0	0	1
96	87	2.8571428571428568	0	0	1
95	96	2.8571428571428568	0	0	1
85	97	2.8571428571428568	0	0	1
98	94	2.8571428571428568	0	0	1
99	100	2.8571428571428568	0	0	1
101	99	2.8571428571428568	0	0	1
102	110	2.8571428571428568	0	0	1
104	103	2.8571428571428568	0	0	1
105	104	2.8571428571428568	0	0	1
107	109	2.8571428571428568	0	0	1
108	107	2.8571428571428568	0	0	1
100	108	2.8571428571428568	0	0	1
109	106	2.8571428571428568	0	0	1
110	101	2.8571428571428568	0	0	1
109	110	2.8571428571428568	0	0	1
99	111	2.8571428571428568	0	0	1
112	108	2.8571428571428568	0	0	1
113	114	2.8571428571428568	0	0	1
115	113	2.8571428571428568	0	0	1
116	124	2.8571428571428568	0	0	1
118	117	2.8571428571428568	0	0	1
119	118	2.8571428571428568	0	0	1
121	123	2.8571428571428568	0	0	1
122	121	2.8571428571428568	0	0	1
114	122	2.8571428571428568	0	0	1
123	120	2.8571428571428568	0	0	1
124	115	2.8571428571428568	0	0	1
123	124	2.8571428571428568	0	0	1
113	125	2.8571428571428568	0	0	1
126	122	2.8571428571428568	0	0	1
127	128	2.8571428571428568	0	0	1
129	130	2.8571428571428568	0	0	1
131	132	2.8571428571428568	0	0	1
133	134	2.8571428571428568	0	0	1
135	136	2.8571428571428568	0	0	1
137	40	0.2857142857142857	7	0	20
138	42	0.2857142857142857	7	0	20
139	34	0.2857142857142857	5	0	20
140	36	0.2857142857142857	5	0	20
[NumArcSegments] = 52
2	3	2.1465800032306124	2.0809859366963441	0	0	2	2.0809859366963441
3	4	91.92671004570569	10	0	0	2	10
9	10	88.847381503809203	2.5430855345991374	0	0	2	2.5430855345991374
10	11	91.152618496227575	10	0	0	2	10
16	17	89.608471056240219	3.2395813375191791	0	0	2	3.2395813375191791
17	18	90.391528943573306	10	0	0	2	10
21	20	2.1465800032306719	2.080985936697632	0	0	2	2.080985936697632
22	21	91.926709953113317	10	0	0	2	10
26	25	88.847381503808933	2.5430855345978287	0	0	2	2.5430855345978287
27	26	91.152618496188026	10	0	0	2	10
31	30	89.608471056240489	3.2395813375281666	0	0	2	3.2395813375281666
32	31	90.391528943491593	10	0	0	2	10
34	36	5.9999999999999991	0.02871968897898863	0	0	2	0.02871968897898863
35	37	5.9999999999999991	0.095493284166084422	0	0	2	0.095493284166084422
39	127	1	2.8571428571428568	1	0	1	0.083000000000000004
40	56	0.35175536533719071	0.028699548944641516	0	0	1	0.028699548944641516
47	46	90.421546853994215	10	0	0	1	10
50	49	90.421546853993718	10	0	0	1	10
55	128	0.35175536533719082	0.028699548944641516	0	0	1	0.028699548944641516
56	55	0.29648926932561825	0.028699548944641516	0	0	1	0.028699548944641516
61	60	90.421546853996304	10	0	0	1	10
64	63	90.421546853993277	10	0	0	1	10
69	130	0.35175536533719048	0.028699548944641516	0	0	1	0.028699548944641516
70	69	0.2964892693256187	0.028699548944641516	0	0	1	0.028699548944641516
75	74	90.421546853995196	10	0	0	1	10
78	77	90.421546853995054	10	0	0	1	10
83	132	0.35175536533719098	0.028699548944641516	0	0	1	0.028699548944641516
84	83	0.29648926932561875	0.028699548944641516	0	0	1	0.028699548944641516
89	88	90.421546853994997	10	0	0	1	10
92	91	90.421546853996119	10	0	0	1	10
97	134	0.35175536533719182	0.028699548944641516	0	0	1	0.028699548944641516
98	97	0.29648926932561842	0.028699548944641516	0	0	1	0.028699548944641516
103	102	90.421546853993348	10	0	0	1	10
106	105	90.421546853996219	10	0	0	1	10
111	136	0.35175536533718949	0.028699548944641516	0	0	1	0.028699548944641516
112	111	0.29648926932561842	0.028699548944641516	0	0	1	0.028699548944641516
117	116	90.421546853995551	10	0	0	1	10
120	119	90.421546853990307	10	0	0	1	10
125	42	0.35175536533719026	0.028699548944641516	0	0	1	0.028699548944641516
126	125	0.2964892693256192	0.028699548944641516	0	0	1	0.028699548944641516
127	129	1.0000000000000002	2.8571428571428568	1	0	1	0.25
128	70	0.35175536533719104	0.028699548944641516	0	0	1	0.028699548944641516
129	131	1.0000000000000007	2.8571428571428568	1	0	1	0.25
130	84	0.35175536533719098	0.028699548944641516	0	0	1	0.028699548944641516
131	133	1	2.8571428571428568	1	0	1	0.17000000000000001
132	98	0.35175536533719104	0.028699548944641516	0	0	1	0.028699548944641516
133	135	0.99999999999999889	2.8571428571428568	1	0	1	0.20000000000000001
134	112	0.35175536533718949	0.028699548944641516	0	0	1	0.028699548944641516
135	41	0.99999999999999889	2.8571428571428568	1	0	1	0.090999999999999998
136	126	0.35175536533718932	0.028699548944641516	0	0	1	0.028699548944641516
137	138	6	0.2857142857142857	11	0	20	0.012999999999999999
139	140	6	0.2857142857142857	11	0	20	0.012999999999999999
[NumHoles] = 0
[NumBlockLabels] = 34
1414.5373348804731	100.51794107926131	7	2.8571428571428568	0	0	2	1	0
1408.2502551888713	114.07727185612868	7	2.8571428571428568	0	0	2	1	0
1407.567078082471	134.02538504158281	7	2.8571428571428568	0	0	2	1	0
1417.2967185024186	47.890745228068319	7	2.8571428571428568	0	0	2	1	0
1412.4600348641782	33.749890446374657	7	2.8571428571428568	0	0	2	1	0
1413.8657458898135	13.839643659084331	7	2.8571428571428568	0	0	2	1	0
893.80890345112641	46.842539733283715	1	2.8571428571428568	0	0	22	1	0
213.99132985488384	11.214810383519218	7	2.8571428571428568	0	0	2	1	0
1442.6544013837567	12.589854228632307	3	2.8571428571428568	1	0	1	1	0
1455.5107001663425	12.702049448386427	3	2.8571428571428568	1	0	1	1	0
1431.085977140986	12.48889811971824	7	2.8571428571428568	0	0	10	1	0
1480.9436080580376	12.923999073091798	1	2.8571428571428568	0	0	12	1	0
1442.2149548777882	37.765727694338224	3	2.8571428571428568	1	0	1	1	0
1455.0673375072231	38.102279177849788	3	2.8571428571428568	1	0	1	1	0
1430.6500544891078	37.462890119804783	7	2.8571428571428568	0	0	10	1	0
1480.4924982888003	38.768060443960138	1	2.8571428571428568	0	0	12	1	0
1441.336195725514	62.93009735354363	3	2.8571428571428568	3	0	1	-1	0
1454.1807472415451	63.490902583970509	3	2.8571428571428568	3	0	1	-1	0
1429.7783419716138	62.425470560649657	7	2.8571428571428568	0	0	10	1	0
1479.5904161627313	64.600312688062616	1	2.8571428571428568	0	0	12	1	0
1440.0183916054846	88.075297895477618	3	2.8571428571428568	3	0	1	-1	0
1452.8511994332923	88.860186046113967	3	2.8571428571428568	3	0	1	-1	0
1428.4711051205813	87.36903559843266	7	2.8571428571428568	0	0	10	1	0
1478.2376364627848	90.412887051123022	1	2.8571428571428568	0	0	12	1	0
1438.2619439336006	113.19366984846805	3	2.8571428571428568	2	0	1	1	0
1451.0790990756063	114.20240183477985	3	2.8571428571428568	2	0	1	1	0
1426.7287421330188	112.28598718160951	7	2.8571428571428568	0	0	10	1	0
1476.4345712587624	116.19792077293836	1	2.8571428571428568	0	0	12	1	0
1436.0673877408383	138.27756191309095	3	2.8571428571428568	2	0	1	1	0
1448.8649859674233	139.5098304655433	3	2.8571428571428568	2	0	1	1	0
1424.5517837495713	137.16873536535206	7	2.8571428571428568	0	0	10	1	0
1474.1817697817917	141.94755948245171	1	2.8571428571428568	0	0	12	1	0
1423.8792783042297	74.622350943064077	7	0.2857142857142857	0	0	20	1	0
1423.2135252810601	74.587460305568783	7	0.2857142857142857	0	0	20	1	0
