[Format]      =  4.0
[Frequency]   =  0
[Precision]   =  1e-008
[MinAngle]    =  15
[DoSmartMesh] =  1
[Depth]       =  300
[LengthUnits] =  millimeters
[ProblemType] =  planar
[Coordinates] =  cartesian
[ACSolver]    =  0
[PrevType]    =  0
[PrevSoln]    =  ""
[Comment]     =  "Add comments here."
[PointProps]   = 0
[BdryProps]   = 11
  <BeginBdry>
    <BdryName> = "A=0"
    <BdryType> = 0
    <A_0> = 0
    <A_1> = 0
    <A_2> = 0
    <Phi> = 0
    <c0> = 0
    <c0i> = 0
    <c1> = 0
    <c1i> = 0
    <Mu_ssd> = 0
    <Sigma_ssd> = 0
    <innerangle> = 0
    <outerangle> = 0
  <EndBdry>
  <BeginBdry>
    <BdryName> = "APr1"
    <BdryType> = 5
    <A_0> = 0
    <A_1> = 0
    <A_2> = 0
    <Phi> = 0
    <c0> = 0
    <c0i> = 0
    <c1> = 0
    <c1i> = 0
    <Mu_ssd> = 0
    <Sigma_ssd> = 0
    <innerangle> = 0
    <outerangle> = 0
  <EndBdry>
  <BeginBdry>
    <BdryName> = "APr2"
    <BdryType> = 5
    <A_0> = 0
    <A_1> = 0
    <A_2> = 0
    <Phi> = 0
    <c0> = 0
    <c0i> = 0
    <c1> = 0
    <c1i> = 0
    <Mu_ssd> = 0
    <Sigma_ssd> = 0
    <innerangle> = 0
    <outerangle> = 0
  <EndBdry>
  <BeginBdry>
    <BdryName> = "APr3"
    <BdryType> = 5
    <A_0> = 0
    <A_1> = 0
    <A_2> = 0
    <Phi> = 0
    <c0> = 0
    <c0i> = 0
    <c1> = 0
    <c1i> = 0
    <Mu_ssd> = 0
    <Sigma_ssd> = 0
    <innerangle> = 0
    <outerangle> = 0
  <EndBdry>
  <BeginBdry>
    <BdryName> = "APg1"
    <BdryType> = 5
    <A_0> = 0
    <A_1> = 0
    <A_2> = 0
    <Phi> = 0
    <c0> = 0
    <c0i> = 0
    <c1> = 0
    <c1i> = 0
    <Mu_ssd> = 0
    <Sigma_ssd> = 0
    <innerangle> = 0
    <outerangle> = 0
  <EndBdry>
  <BeginBdry>
    <BdryName> = "APg2"
    <BdryType> = 5
    <A_0> = 0
    <A_1> = 0
    <A_2> = 0
    <Phi> = 0
    <c0> = 0
    <c0i> = 0
    <c1> = 0
    <c1i> = 0
    <Mu_ssd> = 0
    <Sigma_ssd> = 0
    <innerangle> = 0
    <outerangle> = 0
  <EndBdry>
  <BeginBdry>
    <BdryName> = "APg3"
    <BdryType> = 5
    <A_0> = 0
    <A_1> = 0
    <A_2> = 0
    <Phi> = 0
    <c0> = 0
    <c0i> = 0
    <c1> = 0
    <c1i> = 0
    <Mu_ssd> = 0
    <Sigma_ssd> = 0
    <innerangle> = 0
    <outerangle> = 0
  <EndBdry>
  <BeginBdry>
    <BdryName> = "APs1"
    <BdryType> = 5
    <A_0> = 0
    <A_1> = 0
    <A_2> = 0
    <Phi> = 0
    <c0> = 0
    <c0i> = 0
    <c1> = 0
    <c1i> = 0
    <Mu_ssd> = 0
    <Sigma_ssd> = 0
    <innerangle> = 0
    <outerangle> = 0
  <EndBdry>
  <BeginBdry>
    <BdryName> = "APs2"
    <BdryType> = 5
    <A_0> = 0
    <A_1> = 0
    <A_2> = 0
    <Phi> = 0
    <c0> = 0
    <c0i> = 0
    <c1> = 0
    <c1i> = 0
    <Mu_ssd> = 0
    <Sigma_ssd> = 0
    <innerangle> = 0
    <outerangle> = 0
  <EndBdry>
  <BeginBdry>
    <BdryName> = "APs3"
    <BdryType> = 5
    <A_0> = 0
    <A_1> = 0
    <A_2> = 0
    <Phi> = 0
    <c0> = 0
    <c0i> = 0
    <c1> = 0
    <c1i> = 0
    <Mu_ssd> = 0
    <Sigma_ssd> = 0
    <innerangle> = 0
    <outerangle> = 0
  <EndBdry>
  <BeginBdry>
    <BdryName> = "AGap"
    <BdryType> = 7
    <A_0> = 0
    <A_1> = 0
    <A_2> = 0
    <Phi> = 0
    <c0> = 0
    <c0i> = 0
    <c1> = 0
    <c1i> = 0
    <Mu_ssd> = 0
    <Sigma_ssd> = 0
    <innerangle> = 3.1111111111111112
    <outerangle> = 0
  <EndBdry>
[BlockProps]  = 13
  <BeginBlock>
    <BlockName> = "M270-35A"
    <Mu_x> = 1
    <Mu_y> = 1
    <H_c> = 0
    <H_cAngle> = 0
    <J_re> = 0
    <J_im> = 0
    <Sigma> = 0
    <d_lam> = 0
    <Phi_h> = 0
    <Phi_hx> = 0
    <Phi_hy> = 0
    <LamType> = 0
    <LamFill> = 1
    <NStrands> = 0
    <WireD> = 0
    <BHPoints> = 200
      0	0
      0.0045422769999999999	3.2767874890000002
      0.0090353559999999996	6.114592773
      0.013222249	8.4602422570000009
      0.017196487	10.462328400000001
      0.020991169	12.199266809999999
      0.024640190999999999	13.72982376
      0.028168996000000002	15.09561901
      0.031597466999999997	16.327217480000002
      0.034941272000000002	17.447599879999999
      0.038212956999999999	18.47443998
      0.041422729999999998	19.421601849999998
      0.044579012000000001	20.300151339999999
      0.047688851999999997	21.119056130000001
      0.050758219	21.885681389999998
      0.053792226999999998	22.60614816
      0.056795300999999999	23.285597330000002
      0.059771310000000001	23.928387470000001
      0.062723663999999998	24.538245379999999
      0.065655396000000005	25.11838217
      0.068569221	25.67158405
      0.071467592999999996	26.200284
      0.074352739000000001	26.70661905
      0.077226698999999996	27.19247648
      0.080091349000000006	27.65953137
      0.082948429000000004	28.109277410000001
      0.085799557999999998	28.54305239
      0.088646256000000007	28.96205934
      0.091489953999999998	29.36738437
      0.094332005999999996	29.760011540000001
      0.097173704999999999	30.140835630000002
      0.100016285	30.510672870000001
      0.102860934	30.870270300000001
      0.105708802	31.220313650000001
      0.108561001	31.561434299999998
      0.11141862	31.894215259999999
      0.114282722	32.21919639
      0.117154355	32.536878999999999
      0.120034552	32.847729870000002
      0.12292433699999999	33.152184810000001
      0.12582473199999999	33.45065185
      0.12873675200000001	33.743513989999997
      0.13166142	34.031131799999997
      0.13459976100000001	34.313845620000002
      0.137552811	34.591977620000002
      0.14052161499999999	34.865833639999998
      0.14350723800000001	35.135704879999999
      0.14651076099999999	35.401869419999997
      0.14953328699999999	35.664593680000003
      0.15257594699999999	35.924133650000002
      0.155639899	36.180736189999998
      0.158726334	36.434640119999997
      0.161836481	36.686077320000003
      0.16497160599999999	36.93527375
      0.16813302299999999	37.182450420000002
      0.17132209400000001	37.427824389999998
      0.17454023399999999	37.671609650000001
      0.17778891699999999	37.914018050000003
      0.18106968000000001	38.155260249999998
      0.18438413100000001	38.395546590000002
      0.18773395400000001	38.635088090000004
      0.191120915	38.87409736
      0.19454686800000001	39.112789630000002
      0.19801376800000001	39.351383830000003
      0.20152367299999999	39.590103640000002
      0.20507876	39.829178749999997
      0.208681327	40.068846100000002
      0.21233381500000001	40.309351300000003
      0.216038808	40.550950149999998
      0.21979905799999999	40.793910310000001
      0.22361749	41.038513199999997
      0.227497227	41.285056060000002
      0.2314416	41.53385428
      0.23545417299999999	41.785244059999997
      0.23953876299999999	42.039585369999998
      0.24369946200000001	42.297265359999997
      0.247940667	42.558702250000003
      0.25226710400000002	42.824349750000003
      0.25668386300000001	43.0947022
      0.26119642799999998	43.370300520000001
      0.26581071499999998	43.651739030000002
      0.27054201700000002	43.94020278
      0.275438138	44.23873004
      0.28051031599999998	44.548036490000001
      0.28576849199999999	44.868763260000001
      0.29122336399999998	45.201605100000002
      0.296886504	45.547319020000003
      0.30277045699999999	45.906731970000003
      0.30888884599999999	46.280749559999997
      0.31525650100000002	46.670366299999998
      0.321889598	47.076677459999999
      0.328805825	47.50089294
      0.33602457000000002	47.944353649999996
      0.34356714500000002	48.408550759999997
      0.351457032	48.895148689999999
      0.35972019	49.406012390000001
      0.36838539799999998	49.943240269999997
      0.37748466600000002	50.509203810000002
      0.38705371900000002	51.106595769999998
      0.39713256899999999	51.738489119999997
      0.40776619800000002	52.408409570000003
      0.41900536300000002	53.120425429999997
      0.43090757000000002	53.879259759999997
      0.44353822799999998	54.690431349999997
      0.45697202599999998	55.560433060000001
      0.47129457299999999	56.49695913
      0.486604327	57.509196449999997
      0.503014823	58.60819978
      0.520657166	59.807376320000003
      0.53968265500000001	61.123111049999999
      0.56026517099999995	62.575567960000001
      0.58260257699999995	64.189698669999999
      0.60691558199999995	65.996464399999994
      0.63344113800000001	68.034201780000004
      0.662415215	70.349880479999996
      0.69403682899999997	72.999622560000006
      0.72840307800000004	76.047204840000006
      0.76540934699999996	79.558509650000005
      0.80463064699999998	83.589963030000007
      0.84524547999999999	88.171938179999998
      0.88609953900000005	93.294734669999997
      0.92594964300000004	98.90894376
      0.963771241	104.9435902
      0.99893980100000002	111.3300564
      1.0312218310000001	118.0174305
      1.0606584889999999	124.9760964
      1.0874410889999999	132.19454709999999
      1.1118223309999999	139.6744898
      1.1340651580000001	147.42664859999999
      1.1544176930000001	155.46782519999999
      1.173103241	163.8190534
      1.1903180360000001	172.50453999999999
      1.2062325739999999	181.55112829999999
      1.220994358	190.98810510000001
      1.234730984	200.84723579999999
      1.2475531	211.16296399999999
      1.2595570490000001	221.97273730000001
      1.270827143	233.31744900000001
      1.281437594	245.2419931
      1.291454146	257.79594609999998
      1.3009354369999999	271.03439809999998
      1.309934159	285.01896390000002
      1.318498043	299.81902289999999
      1.326670706	315.51324579999999
      1.3344924010000001	332.19149570000002
      1.3420006879999999	349.95721329999998
      1.3492310569999999	368.93044570000001
      1.356217531	389.25173360000002
      1.362993272	411.08716509999999
      1.3695912379999999	434.63503709999998
      1.3760449050000001	460.1347695
      1.382389146	487.87903890000001
      1.3886613240000001	518.23060969999995
      1.394902732	551.64618570000005
      1.401160583	588.71104339999999
      1.4074908660000001	630.19074279999995
      1.4139626249999999	677.11087850000001
      1.420664664	730.8848299
      1.4277165590000001	793.52783980000004
      1.435287779	868.03580320000003
      1.4436331710000001	959.10175079999999
      1.453164339	1074.5891859999999
      1.464608755	1228.9034079999999
      1.479413587	1451.8548430000001
      1.5007295060000001	1812.597843
      1.531321148	2396.2922779999999
      1.5749716949999999	3340.7297119999998
      1.6351726849999999	4868.8615820000005
      1.6746062129999999	6056.7860730000002
      1.7053540309999999	7126.7301200000002
      1.7307497590000001	8135.9466300000004
      1.752580204	9119.3875740000003
      1.771845345	10098.25848
      1.789165838	11087.22133
      1.804957089	12097.58993
      1.819514077	13138.977849999999
      1.8330565510000001	14220.25051
      1.845754994	15350.15127
      1.8577465099999999	16537.778849999999
      1.869145125	17793.012470000001
      1.8800488470000001	19126.948680000001
      1.8905448170000001	20552.403480000001
      1.9007133519999999	22084.53774
      1.9106314310000001	23741.68173
      1.920376064	25546.46932
      1.930027954	27527.455720000002
      1.9396760099999999	29721.505959999999
      1.9494234969999999	32177.45292
      1.959397184	34961.935420000002
      1.969762051	38169.180130000001
      1.980746793	41938.394229999998
      1.9926918389999999	46487.096960000003
      2.0061495709999999	52181.595710000001
      2.022124024	59707.652569999998
      2.042772002	70576.241299999994
      2.0725625070000002	88161.987269999998
      2.1158769670000002	116616.322
      2.1803765140000002	162656.4026
      2.2792825830000001	237150.818
      2.3747656959999999	310949.48619999998
  <EndBlock>
  <BeginBlock>
    <BlockName> = "ShaftAir"
    <Mu_x> = 1
    <Mu_y> = 1
    <H_c> = 0
    <H_cAngle> = 0
    <J_re> = 0
    <J_im> = 0
    <Sigma> = 0
    <d_lam> = 0
    <Phi_h> = 0
    <Phi_hx> = 0
    <Phi_hy> = 0
    <LamType> = 0
    <LamFill> = 1
    <NStrands> = 0
    <WireD> = 0
    <BHPoints> = 3
      -100	-7.9577471545947675e-011
      0	0
      100	7.9577471545947675e-011
  <EndBlock>
  <BeginBlock>
    <BlockName> = "Copper"
    <Mu_x> = 1
    <Mu_y> = 1
    <H_c> = 0
    <H_cAngle> = 0
    <J_re> = 0
    <J_im> = 0
    <Sigma> = 58
    <d_lam> = 0
    <Phi_h> = 0
    <Phi_hx> = 0
    <Phi_hy> = 0
    <LamType> = 0
    <LamFill> = 1
    <NStrands> = 0
    <WireD> = 0
    <BHPoints> = 0
  <EndBlock>
  <BeginBlock>
    <BlockName> = "Aluminium"
    <Mu_x> = 1
    <Mu_y> = 1
    <H_c> = 0
    <H_cAngle> = 0
    <J_re> = 0
    <J_im> = 0
    <Sigma> = 29
    <d_lam> = 0
    <Phi_h> = 0
    <Phi_hx> = 0
    <Phi_hy> = 0
    <LamType> = 0
    <LamFill> = 1
    <NStrands> = 0
    <WireD> = 0
    <BHPoints> = 0
  <EndBlock>
  <BeginBlock>
    <BlockName> = "FB14H"
    <Mu_x> = 1.05
    <Mu_y> = 1.05
    <H_c> = 356200
    <H_cAngle> = 0
    <J_re> = 0
    <J_im> = 0
    <Sigma> = 0
    <d_lam> = 0
    <Phi_h> = 0
    <Phi_hx> = 0
    <Phi_hy> = 0
    <LamType> = 0
    <LamFill> = 1
    <NStrands> = 0
    <WireD> = 0
    <BHPoints> = 0
  <EndBlock>
  <BeginBlock>
    <BlockName> = "DW235"
    <Mu_x> = 1
    <Mu_y> = 1
    <H_c> = 0
    <H_cAngle> = 0
    <J_re> = 0
    <J_im> = 0
    <Sigma> = 0
    <d_lam> = 0
    <Phi_h> = 0
    <Phi_hx> = 0
    <Phi_hy> = 0
    <LamType> = 0
    <LamFill> = 1
    <NStrands> = 0
    <WireD> = 0
    <BHPoints> = 0
  <EndBlock>
  <BeginBlock>
    <BlockName> = "Air"
    <Mu_x> = 1
    <Mu_y> = 1
    <H_c> = 0
    <H_cAngle> = 0
    <J_re> = 0
    <J_im> = 0
    <Sigma> = 0
    <d_lam> = 0
    <Phi_h> = 0
    <Phi_hx> = 0
    <Phi_hy> = 0
    <LamType> = 0
    <LamFill> = 1
    <NStrands> = 0
    <WireD> = 0
    <BHPoints> = 0
  <EndBlock>
  <BeginBlock>
    <BlockName> = "FB14H_1"
    <Mu_x> = 1.05
    <Mu_y> = 1.05
    <H_c> = 316415.18448031577
    <H_cAngle> = 0
    <J_re> = 0
    <J_im> = 0
    <Sigma> = 0
    <d_lam> = 0
    <Phi_h> = 0
    <Phi_hx> = 0
    <Phi_hy> = 0
    <LamType> = 0
    <LamFill> = 1
    <NStrands> = 0
    <WireD> = 0
    <BHPoints> = 0
  <EndBlock>
  <BeginBlock>
    <BlockName> = "FB14H_2"
    <Mu_x> = 1.05
    <Mu_y> = 1.05
    <H_c> = 316415.18448031577
    <H_cAngle> = 0
    <J_re> = 0
    <J_im> = 0
    <Sigma> = 0
    <d_lam> = 0
    <Phi_h> = 0
    <Phi_hx> = 0
    <Phi_hy> = 0
    <LamType> = 0
    <LamFill> = 1
    <NStrands> = 0
    <WireD> = 0
    <BHPoints> = 0
  <EndBlock>
  <BeginBlock>
    <BlockName> = "FB14H_3"
    <Mu_x> = 1.05
    <Mu_y> = 1.05
    <H_c> = 316415.18448031577
    <H_cAngle> = 0
    <J_re> = 0
    <J_im> = 0
    <Sigma> = 0
    <d_lam> = 0
    <Phi_h> = 0
    <Phi_hx> = 0
    <Phi_hy> = 0
    <LamType> = 0
    <LamFill> = 1
    <NStrands> = 0
    <WireD> = 0
    <BHPoints> = 0
  <EndBlock>
  <BeginBlock>
    <BlockName> = "FB14H_4"
    <Mu_x> = 1.05
    <Mu_y> = 1.05
    <H_c> = 316415.18448031577
    <H_cAngle> = 0
    <J_re> = 0
    <J_im> = 0
    <Sigma> = 0
    <d_lam> = 0
    <Phi_h> = 0
    <Phi_hx> = 0
    <Phi_hy> = 0
    <LamType> = 0
    <LamFill> = 1
    <NStrands> = 0
    <WireD> = 0
    <BHPoints> = 0
  <EndBlock>
  <BeginBlock>
    <BlockName> = "FB14H_5"
    <Mu_x> = 1.05
    <Mu_y> = 1.05
    <H_c> = 316415.18448031577
    <H_cAngle> = 0
    <J_re> = 0
    <J_im> = 0
    <Sigma> = 0
    <d_lam> = 0
    <Phi_h> = 0
    <Phi_hx> = 0
    <Phi_hy> = 0
    <LamType> = 0
    <LamFill> = 1
    <NStrands> = 0
    <WireD> = 0
    <BHPoints> = 0
  <EndBlock>
  <BeginBlock>
    <BlockName> = "FB14H_6"
    <Mu_x> = 1.05
    <Mu_y> = 1.05
    <H_c> = 316415.18448031577
    <H_cAngle> = 0
    <J_re> = 0
    <J_im> = 0
    <Sigma> = 0
    <d_lam> = 0
    <Phi_h> = 0
    <Phi_hx> = 0
    <Phi_hy> = 0
    <LamType> = 0
    <LamFill> = 1
    <NStrands> = 0
    <WireD> = 0
    <BHPoints> = 0
  <EndBlock>
[CircuitProps]  = 6
  <BeginCircuit>
    <CircuitName> = "fase1"
    <TotalAmps_re> = 40.287832854531757
    <TotalAmps_im> = 0
    <CircuitType> = 1
  <EndCircuit>
  <BeginCircuit>
    <CircuitName> = "fase2"
    <TotalAmps_re> = -478.33759783794363
    <TotalAmps_im> = -0
    <CircuitType> = 1
  <EndCircuit>
  <BeginCircuit>
    <CircuitName> = "fase3"
    <TotalAmps_re> = 438.04976498341188
    <TotalAmps_im> = 0
    <CircuitType> = 1
  <EndCircuit>
  <BeginCircuit>
    <CircuitName> = "fase1n"
    <TotalAmps_re> = -40.287832854531757
    <TotalAmps_im> = -0
    <CircuitType> = 1
  <EndCircuit>
  <BeginCircuit>
    <CircuitName> = "fase2n"
    <TotalAmps_re> = 478.33759783794363
    <TotalAmps_im> = 0
    <CircuitType> = 1
  <EndCircuit>
  <BeginCircuit>
    <CircuitName> = "fase3n"
    <TotalAmps_re> = -438.04976498341188
    <TotalAmps_im> = -0
    <CircuitType> = 1
  <EndCircuit>
[NumPoints] = 209
399.81934061571877	43.19605245160048	0	2
400.5327214244665	35.042072495827803	0	2
404.80964261790376	44.075977336469172	0	2
406.03468883204198	45.714237006286041	0	2
404.3673670570422	46.961015075617411	0	2
396.6793942458084	45.60541804204378	0	2
397.6258174470031	34.787751351841329	0	2
392.92837077850839	48.591385644360884	0	2
394.16254113354665	34.484753935756039	0	2
400.21061395833607	49.875441597044698	0	2
404.73234055501717	56.08647349279191	0	2
403.95445042905345	56.652789449793929	0	2
386.44590085353281	53.565559766557897	0	2
388.16119098652541	33.959703832042045	0	2
375.65570076451849	35.805492447915306	0	2
377.62788005593097	34.150637531875574	0	2
383.19041326110494	34.637296127814814	0	2
384.84526817714465	36.609475419227351	0	2
383.1379102272756	56.124666085765753	0	2
397.75137596790682	58.701414377497841	0	2
403.17605536127382	66.35531917882011	0	2
400.15982268348165	68.493063987191221	0	2
373.21162815465692	63.741370210379188	0	2
398.53257599886615	34.867082445684531	0	2
397.81919519011842	43.021062401457208	0	2
389.06794953838846	34.039034925885247	0	2
392.92869238214047	48.587709698025591	0	2
387.83410078698228	48.141990688154799	0	2
376.56245931638153	35.884823541758507	0	2
374.85510136651249	55.400014208296909	0	2
401.24610223321423	26.888092540055126	0	2
406.31338768757956	26.888092540055119	0	2
407.80430350327003	25.487448758415109	0	2
406.37881283217871	23.970084661638875	0	2
398.57224064819781	23.970084661638875	0	2
395.39671148858491	20.378122227151195	0	2
402.79129500760536	20.378122227151195	0	2
408.32286078714611	15.046639445435009	0	2
407.65512829402252	14.353847897526183	0	2
389.87648111951802	14.353847897526194	0	2
377.82106000621911	31.9425805962378	0	2
376.1662050901794	29.97040130482527	0	2
383.38359321139308	32.429239192177043	0	2
385.35577250280556	30.774384276137315	0	2
387.06313045267461	11.25919360959891	0	2
401.9020324575921	11.259193609598913	0	2
408.57338540257126	4.6635545115249144	0	2
405.97419156688335	2.0345235423613772	0	2
378.61027770004097	2.0345235423613843	0	2
399.24595680761388	26.713102489911854	0	2
395.39638988495284	20.381798173486487	0	2
390.30179828979465	19.936079163615695	0	2
377.07296364204245	30.049732398668471	0	2
378.7803215919115	10.534541732130066	0	2
409.60000000000002	0	0	20
158.15000000000001	0	0	2
403.37725563380042	71.126293572374664	0	20
155.74734613888072	27.462459298025031	0	2
0	0	0	2
512	0	0	1
410.60000000000002	0	0	20
504.22156954225051	88.90786696546833	0	1
404.36206338681262	71.299941750041597	0	20
415.1195200188925	5.1201435091880771	0	1
415.13013585106177	4.025341537967237	0	1
415.36413786272982	6.0698082689158186	0	1
497.89181932719248	7.670430884905258	0	1
500.59621399303734	5.0510996246213375	0	1
500.59868872610645	4.8540939853715841	0	1
500.60003466007191	4.657077400633832	0	1
497.94694082183162	1.9857968378246604	0	1
415.4037387961128	1.9857968378246591	0	1
415.14075168323103	2.9305395667463969	0	1
457.88409808660225	1.9857968378246595	0	1
457.83650959031439	6.8935590097040009	0	1
410.5686228486552	5.0760153820483351	0	1
410.58985451299372	2.8864114396066558	0	1
414.94217888021905	13.168901108547267	0	1
414.97402238454652	12.074510847573684	0	1
415.16833546424499	14.123130769003321	0	1
497.64946108158756	17.323774072276994	0	1
500.4041395628048	14.757377137882521	0	1
500.41043403226257	14.560456529884748	0	1
500.41560012711187	14.36350308953913	0	1
497.81480483656509	11.64127778357701	0	1
415.28712337210243	10.04065516758757	0	1
415.00586588887398	10.980120586600101	0	1
457.759495099687	10.864405908375753	0	1
457.61674750691066	15.770322471615014	0	1
410.3929931162894	13.036533321911953	0	1
410.45668012494434	10.847752799964788	0	1
414.60879495796013	21.212706422768122	0	1
414.66185415940618	20.119139427461668	0	1
414.81640523393258	22.171142137202324	0	1
497.21995722604117	26.970602496710583	0	1
500.02388360071211	24.458105005134641	0	1
500.03399543946603	24.261343482176056	0	1
500.04297975244214	24.06452725235668	0	1
497.49546106233294	21.292380920848327	0	1
415.01433544499042	18.091737617574655	0	1
414.71491336085222	19.025572432155212	0	1
457.46274748765603	19.738929320186347	0	1
457.22489447992291	24.641155360203374	0	1
410.06303136305593	20.992148754748342	0	1
410.16914976594802	18.805014764135429	0	1
414.11949362417459	29.248534505639487	0	1
414.19374856934348	28.156202021823479	0	1
414.30847951835943	30.210815845576782	0	1
496.60346927938809	36.607288380561968	0	1
499.45558910547538	34.149635179357524	0	1
499.46951451087642	33.953106735399949	0	1
499.4823136633467	33.756501730641652	0	1
496.9890295912686	30.935476864449875	0	1
414.58547759916001	26.136016504941608	0	1
414.26800351451243	27.063869538007474	0	1
456.99396684515034	28.606029727942662	0	1
456.66109786924903	33.502721718010164	0	1
409.57886167407577	28.939869898954033	0	1
409.72737156441355	26.755204931322019	0	1
413.4744588850831	37.273363410860675	0	1
413.56988164972677	36.182676220109158	0	1
413.64474932761448	38.239128501643535	0	1
495.80022907753249	46.230207760381795	0	1
498.69946978941272	43.828323072407166	0	1
498.71720352468537	43.632101613760952	0	1
498.73381270341201	43.435781769165473	0	1
496.29570087153667	40.566939240370985	0	1
414.00071111050801	34.170466705385799	0	1
413.66530441437044	35.091989029357634	0	1
456.35332946139766	37.462372577819174	0	1
455.92556969573684	42.35168907233971	0	1
408.94066612576779	36.876707941644668	0	1
409.13151165505519	34.695333560141627	0	1
412.67393331187105	45.284175328471896	0	1
412.79048801139021	44.19554359363147	0	1
412.8254642634779	46.253060985346579	0	1
494.81053868626424	55.83574184973989	0	1
497.7558099980759	53.490528925596337	0	1
497.77734539428764	53.294688243127219	0	1
497.79775835323784	53.098727386559219	0	1
495.41573563571365	50.183146049510022	0	1
413.26025588579563	42.192066790771769	0	1
412.90704271090942	43.106911858791044	0	1
455.54107625391794	46.304627361467936	0	1
455.01858656145129	51.184729688466305	0	1
408.14868471737753	44.799678162625284	0	1
408.38179411641596	42.622414692944432	0	1
411.71821794946737	53.277957719729109	0	1
411.85586075240633	52.191790830673476	0	1
411.85093242555592	54.249599584424594	0	1
493.63477028766403	65.420278400102774	0	1
496.62496460331954	63.132619178458896	0	1
496.65029356188859	62.937232919838245	0	1
496.67450262458323	62.741704744161666	0	1
494.3494648027368	59.780481029760104	0	1
412.36439037995041	50.1978001653668	0	1
411.99350355534528	51.105623941617836	0	1
454.55751267792385	55.129468868486519	0	1
453.94048954565648	59.998521821059086	0	1
407.20321528072299	52.705801056821485	0	1
407.4785008866009	50.533467278710226	0	1
410.60767220333406	61.251704449996723	0	1
410.76635134786375	60.168410869671881	0	1
410.72152029541746	62.225737127744928	0	1
492.27336604014124	74.980213059252691	0	1
495.30735886984843	72.750967835183332	0	1
495.33647186558932	72.556109477192308	0	1
495.36446792799006	72.361087512557503	0	1
493.09728935345902	69.355335015937385	0	1
411.31345149135086	58.184656200259205	0	1
410.92503049239343	59.085117289347046	0	1
453.40300861145136	63.933578436893697	0	1
452.69168407654894	68.789750963354692	0	1
406.10461336819236	60.592103454749527	0	1
406.42197165725173	58.425516294099843	0	1
409.34271370430815	69.202416919231823	0	1
409.5223695176918	68.122404030049879	0	1
409.43765259877506	70.178474116177668	0	1
490.72683791215593	84.511950726737012	0	1
493.80348829529282	82.341957828201515	0	1
493.83637437999846	82.14770064909942	0	1
493.86814691393118	81.953258235291472	0	1
491.65968017985665	78.904107297040511	0	1
410.10783443513287	66.149631365532741	0	1
409.7020253310755	67.042391140867934	0	1
452.07799821626429	72.713645201142498	0	1
451.27263977879323	77.555111093607621	0	1
404.85329211903547	68.455619640603658	0	1
405.21260374580282	66.29559386223977	0	1
511.90372886963274	9.9283618671740772	0	1
410.52279506615474	7.9620808255110864	0	1
511.61495168216578	19.852990083490155	0	1
410.29120929823688	15.921167438048942	0	1
511.13377703488931	29.770152402163621	0	1
409.90532978618273	23.874266750641375	0	1
510.46038587790952	39.676119384028638	0	1
409.3653016434954	31.818387927894843	0	1
509.5950314461009	49.567165800027695	0	1
408.67132795267389	39.750543510725336	0	1
508.53803916387483	59.43957203211788	0	1
407.82366968884185	47.667750539819536	0	1
507.2898065228008	69.289625472067115	0	1
406.82264562160549	55.567031677403826	0	1
505.85080293212621	79.113621917614324	0	1
405.66863219517779	63.445416326899306	0	1
410.26666666666671	0	0	20
404.03379413580859	71.242059024152624	0	20
409.93333333333334	0	0	20
403.7055248848045	71.184176298263637	0	20
[NumSegments] = 179
0	1	55.555555555555557	0	0	2
2	0	55.555555555555557	0	0	2
5	4	55.555555555555557	0	0	2
6	5	55.555555555555557	0	0	2
7	26	55.555555555555557	0	0	2
9	7	55.555555555555557	0	0	2
12	11	55.555555555555557	0	0	2
13	12	55.555555555555557	0	0	2
16	15	55.555555555555557	0	0	2
18	17	55.555555555555557	0	0	2
19	18	55.555555555555557	0	0	2
22	21	55.555555555555557	0	0	2
14	22	55.555555555555557	0	0	2
1	23	55.555555555555557	0	0	2
24	0	55.555555555555557	0	0	2
23	24	55.555555555555557	0	0	2
8	25	55.555555555555557	0	0	2
26	8	55.555555555555557	0	0	2
27	26	55.555555555555557	0	0	2
25	27	55.555555555555557	0	0	2
17	28	55.555555555555557	0	0	2
29	18	55.555555555555557	0	0	2
28	29	55.555555555555557	0	0	2
30	1	55.555555555555557	0	0	2
31	30	55.555555555555557	0	0	2
34	33	55.555555555555557	0	0	2
6	34	55.555555555555557	0	0	2
35	50	55.555555555555557	0	0	2
36	35	55.555555555555557	0	0	2
39	38	55.555555555555557	0	0	2
13	39	55.555555555555557	0	0	2
42	40	55.555555555555557	0	0	2
44	43	55.555555555555557	0	0	2
45	44	55.555555555555557	0	0	2
48	47	55.555555555555557	0	0	2
41	48	55.555555555555557	0	0	2
49	30	55.555555555555557	0	0	2
23	49	55.555555555555557	0	0	2
50	8	55.555555555555557	0	0	2
51	50	55.555555555555557	0	0	2
25	51	55.555555555555557	0	0	2
43	52	55.555555555555557	0	0	2
53	44	55.555555555555557	0	0	2
52	53	55.555555555555557	0	0	2
54	55	-1	4	0	2
57	56	-1	4	0	2
55	58	-1	2	0	2
58	57	-1	2	0	2
59	60	-1	10	0	1
62	61	-1	10	0	1
63	64	55.555555555555557	0	0	1
65	63	55.555555555555557	0	0	1
66	74	55.555555555555557	0	0	1
68	67	55.555555555555557	0	0	1
69	68	55.555555555555557	0	0	1
71	73	55.555555555555557	0	0	1
72	71	55.555555555555557	0	0	1
64	72	55.555555555555557	0	0	1
73	70	55.555555555555557	0	0	1
74	65	55.555555555555557	0	0	1
73	74	55.555555555555557	0	0	1
63	75	55.555555555555557	0	0	1
76	72	55.555555555555557	0	0	1
77	78	55.555555555555557	0	0	1
79	77	55.555555555555557	0	0	1
80	88	55.555555555555557	0	0	1
82	81	55.555555555555557	0	0	1
83	82	55.555555555555557	0	0	1
85	87	55.555555555555557	0	0	1
86	85	55.555555555555557	0	0	1
78	86	55.555555555555557	0	0	1
87	84	55.555555555555557	0	0	1
88	79	55.555555555555557	0	0	1
87	88	55.555555555555557	0	0	1
77	89	55.555555555555557	0	0	1
90	86	55.555555555555557	0	0	1
91	92	55.555555555555557	0	0	1
93	91	55.555555555555557	0	0	1
94	102	55.555555555555557	0	0	1
96	95	55.555555555555557	0	0	1
97	96	55.555555555555557	0	0	1
99	101	55.555555555555557	0	0	1
100	99	55.555555555555557	0	0	1
92	100	55.555555555555557	0	0	1
101	98	55.555555555555557	0	0	1
102	93	55.555555555555557	0	0	1
101	102	55.555555555555557	0	0	1
91	103	55.555555555555557	0	0	1
104	100	55.555555555555557	0	0	1
105	106	55.555555555555557	0	0	1
107	105	55.555555555555557	0	0	1
108	116	55.555555555555557	0	0	1
110	109	55.555555555555557	0	0	1
111	110	55.555555555555557	0	0	1
113	115	55.555555555555557	0	0	1
114	113	55.555555555555557	0	0	1
106	114	55.555555555555557	0	0	1
115	112	55.555555555555557	0	0	1
116	107	55.555555555555557	0	0	1
115	116	55.555555555555557	0	0	1
105	117	55.555555555555557	0	0	1
118	114	55.555555555555557	0	0	1
119	120	55.555555555555557	0	0	1
121	119	55.555555555555557	0	0	1
122	130	55.555555555555557	0	0	1
124	123	55.555555555555557	0	0	1
125	124	55.555555555555557	0	0	1
127	129	55.555555555555557	0	0	1
128	127	55.555555555555557	0	0	1
120	128	55.555555555555557	0	0	1
129	126	55.555555555555557	0	0	1
130	121	55.555555555555557	0	0	1
129	130	55.555555555555557	0	0	1
119	131	55.555555555555557	0	0	1
132	128	55.555555555555557	0	0	1
133	134	55.555555555555557	0	0	1
135	133	55.555555555555557	0	0	1
136	144	55.555555555555557	0	0	1
138	137	55.555555555555557	0	0	1
139	138	55.555555555555557	0	0	1
141	143	55.555555555555557	0	0	1
142	141	55.555555555555557	0	0	1
134	142	55.555555555555557	0	0	1
143	140	55.555555555555557	0	0	1
144	135	55.555555555555557	0	0	1
143	144	55.555555555555557	0	0	1
133	145	55.555555555555557	0	0	1
146	142	55.555555555555557	0	0	1
147	148	55.555555555555557	0	0	1
149	147	55.555555555555557	0	0	1
150	158	55.555555555555557	0	0	1
152	151	55.555555555555557	0	0	1
153	152	55.555555555555557	0	0	1
155	157	55.555555555555557	0	0	1
156	155	55.555555555555557	0	0	1
148	156	55.555555555555557	0	0	1
157	154	55.555555555555557	0	0	1
158	149	55.555555555555557	0	0	1
157	158	55.555555555555557	0	0	1
147	159	55.555555555555557	0	0	1
160	156	55.555555555555557	0	0	1
161	162	55.555555555555557	0	0	1
163	161	55.555555555555557	0	0	1
164	172	55.555555555555557	0	0	1
166	165	55.555555555555557	0	0	1
167	166	55.555555555555557	0	0	1
169	171	55.555555555555557	0	0	1
170	169	55.555555555555557	0	0	1
162	170	55.555555555555557	0	0	1
171	168	55.555555555555557	0	0	1
172	163	55.555555555555557	0	0	1
171	172	55.555555555555557	0	0	1
161	173	55.555555555555557	0	0	1
174	170	55.555555555555557	0	0	1
175	176	55.555555555555557	0	0	1