[Format]      =  4.0
[Frequency]   =  0
[Precision]   =  1e-008
[MinAngle]    =  15
[DoSmartMesh] =  1
[Depth]       =  110
[LengthUnits] =  millimeters
[ProblemType] =  planar
[Coordinates] =  cartesian
[ACSolver]    =  0
[PrevType]    =  0
[PrevSoln]    =  ""
[Comment]     =  "Add comments here."
[PointProps]   = 0
[BdryProps]   = 11
  <BeginBdry>
    <BdryName> = "A=0"
    <BdryType> = 0
    <A_0> = 0
    <A_1> = 0
    <A_2> = 0
    <Phi> = 0
    <c0> = 0
    <c0i> = 0
    <c1> = 0
    <c1i> = 0
    <Mu_ssd> = 0
    <Sigma_ssd> = 0
    <innerangle> = 0
    <outerangle> = 0
  <EndBdry>
  <BeginBdry>
    <BdryName> = "APr1"
    <BdryType> = 5
    <A_0> = 0
    <A_1> = 0
    <A_2> = 0
    <Phi> = 0
    <c0> = 0
    <c0i> = 0
    <c1> = 0
    <c1i> = 0
    <Mu_ssd> = 0
    <Sigma_ssd> = 0
    <innerangle> = 0
    <outerangle> = 0
  <EndBdry>
  <BeginBdry>
    <BdryName> = "APr2"
    <BdryType> = 5
    <A_0> = 0
    <A_1> = 0
    <A_2> = 0
    <Phi> = 0
    <c0> = 0
    <c0i> = 0
    <c1> = 0
    <c1i> = 0
    <Mu_ssd> = 0
    <Sigma_ssd> = 0
    <innerangle> = 0
    <outerangle> = 0
  <EndBdry>
  <BeginBdry>
    <BdryName> = "APr3"
    <BdryType> = 5
    <A_0> = 0
    <A_1> = 0
    <A_2> = 0
    <Phi> = 0
    <c0> = 0
    <c0i> = 0
    <c1> = 0
    <c1i> = 0
    <Mu_ssd> = 0
    <Sigma_ssd> = 0
    <innerangle> = 0
    <outerangle> = 0
  <EndBdry>
  <BeginBdry>
    <BdryName> = "APg1"
    <BdryType> = 5
    <A_0> = 0
    <A_1> = 0
    <A_2> = 0
    <Phi> = 0
    <c0> = 0
    <c0i> = 0
    <c1> = 0
    <c1i> = 0
    <Mu_ssd> = 0
    <Sigma_ssd> = 0
    <innerangle> = 0
    <outerangle> = 0
  <EndBdry>
  <BeginBdry>
    <BdryName> = "APg2"
    <BdryType> = 5
    <A_0> = 0
    <A_1> = 0
    <A_2> = 0
    <Phi> = 0
    <c0> = 0
    <c0i> = 0
    <c1> = 0
    <c1i> = 0
    <Mu_ssd> = 0
    <Sigma_ssd> = 0
    <innerangle> = 0
    <outerangle> = 0
  <EndBdry>
  <BeginBdry>
    <BdryName> = "APg3"
    <BdryType> = 5
    <A_0> = 0
    <A_1> = 0
    <A_2> = 0
    <Phi> = 0
    <c0> = 0
    <c0i> = 0
    <c1> = 0
    <c1i> = 0
    <Mu_ssd> = 0
    <Sigma_ssd> = 0
    <innerangle> = 0
    <outerangle> = 0
  <EndBdry>
  <BeginBdry>
    <BdryName> = "APs1"
    <BdryType> = 5
    <A_0> = 0
    <A_1> = 0
    <A_2> = 0
    <Phi> = 0
    <c0> = 0
    <c0i> = 0
    <c1> = 0
    <c1i> = 0
    <Mu_ssd> = 0
    <Sigma_ssd> = 0
    <innerangle> = 0
    <outerangle> = 0
  <EndBdry>
  <BeginBdry>
    <BdryName> = "APs2"
    <BdryType> = 5
    <A_0> = 0
    <A_1> = 0
    <A_2> = 0
    <Phi> = 0
    <c0> = 0
    <c0i> = 0
    <c1> = 0
    <c1i> = 0
    <Mu_ssd> = 0
    <Sigma_ssd> = 0
    <innerangle> = 0
    <outerangle> = 0
  <EndBdry>
  <BeginBdry>
    <BdryName> = "APs3"
    <BdryType> = 5
    <A_0> = 0
    <A_1> = 0
    <A_2> = 0
    <Phi> = 0
    <c0> = 0
    <c0i> = 0
    <c1> = 0
    <c1i> = 0
    <Mu_ssd> = 0
    <Sigma_ssd> = 0
    <innerangle> = 0
    <outerangle> = 0
  <EndBdry>
  <BeginBdry>
    <BdryName> = "AGap"
    <BdryType> = 7
    <A_0> = 0
    <A_1> = 0
    <A_2> = 0
    <Phi> = 0
    <c0> = 0
    <c0i> = 0
    <c1> = 0
    <c1i> = 0
    <Mu_ssd> = 0
    <Sigma_ssd> = 0
    <innerangle> = 3.3333333333333335
    <outerangle> = 0
  <EndBdry>
[BlockProps]  = 7
  <BeginBlock>
    <BlockName> = "M600-50A"
    <Mu_x> = 1
    <Mu_y> = 1
    <H_c> = 0
    <H_cAngle> = 0
    <J_re> = 0
    <J_im> = 0
    <Sigma> = 0
    <d_lam> = 0
    <Phi_h> = 0
    <Phi_hx> = 0
    <Phi_hy> = 0
    <LamType> = 0
    <LamFill> = 1
    <NStrands> = 0
    <WireD> = 0
    <BHPoints> = 208
      0	0
      0.0061294119999999999	8.2635015680000006
      0.012398954	15.54584049
      0.018188152999999999	21.42337126
      0.023698273999999998	26.396066560000001
      0.028962854999999999	30.670770340000001
      0.034031080999999998	34.409892589999998
      0.038937833999999998	37.72521158
      0.043710287	40.697869570000002
      0.048369641999999997	43.388214720000001
      0.052932743999999997	45.842257519999997
      0.057413198999999998	48.095830579999998
      0.061822165999999998	50.17736026
      0.066168929000000001	52.109762629999999
      0.070461307000000001	53.911772880000001
      0.074705967999999998	55.598898519999999
      0.078908651999999996	57.184116670000002
      0.083074354000000003	58.67839326
      0.087207454000000004	60.091076020000003
      0.091311829999999997	61.430196219999999
      0.095390935999999996	62.702703470000003
      0.099447875000000005	63.914650479999999
      0.10348545000000001	65.071340269999993
      0.107506212	66.177444339999994
      0.111512495	67.237098649999993
      0.115506446	68.253982050000005
      0.119490053	69.231381029999994
      0.123465163	70.172243330000001
      0.127433505	71.079222909999999
      0.131396704	71.954717669999994
      0.13535628999999999	72.800901379999999
      0.139313718	73.619750830000001
      0.14327037200000001	74.413069070000006
      0.147227575	75.182505329999998
      0.151186599	75.929572239999999
      0.15514867099999999	76.655660710000006
      0.15911497799999999	77.362052919999996
      0.16308667299999999	78.049933670000001
      0.167064883	78.720400249999997
      0.171050709	79.374471249999999
      0.17504523399999999	80.013094219999999
      0.17904952399999999	80.637152520000001
      0.183064634	81.247471390000001
      0.18709161099999999	81.844823349999999
      0.19113149500000001	82.429933079999998
      0.19518532499999999	83.003481679999993
      0.19925414	83.566110629999997
      0.203338983	84.118425299999998
      0.20744090200000001	84.6609981
      0.21156095499999999	85.194371430000004
      0.21570021	85.719060249999998
      0.21985974999999999	86.23555451
      0.224040674	86.744321339999999
      0.228244101	87.245807119999995
      0.232471172	87.740439260000002
      0.23672305199999999	88.228628009999994
      0.241000933	88.710768049999999
      0.245306038	89.187239969999993
      0.249639624	89.658411700000002
      0.25400298399999999	90.124639849999994
      0.258397449	90.586270990000003
      0.26282439699999999	91.043642790000007
      0.267285249	91.497085290000001
      0.27178147899999999	91.946921900000007
      0.27631461499999999	92.393470609999994
      0.28088624499999998	92.837044969999994
      0.28549801899999999	93.277955219999996
      0.29015165799999998	93.716509279999997
      0.294848956	94.153013889999997
      0.299591787	94.587775629999996
      0.30438211199999998	95.021102040000002
      0.30922198299999998	95.45330276
      0.31411355600000002	95.884690719999995
      0.31905909100000002	96.315583349999997
      0.324060968	96.746303900000001
      0.32912169099999999	97.177182860000002
      0.33424390300000001	97.608559369999995
      0.33943039400000002	98.040782919999998
      0.34468411100000002	98.474215020000003
      0.35000818	98.909231149999997
      0.35540591100000002	99.346222819999994
      0.36088082199999999	99.785599880000007
      0.366436651	100.2277931
      0.37207738099999998	100.67325700000001
      0.37780725700000001	101.1224732
      0.38363081700000001	101.57595360000001
      0.389552911	102.03424510000001
      0.39557873700000001	102.4979336
      0.401713873	102.9676498
      0.40796431599999999	103.44407510000001
      0.41433652900000001	103.9279489
      0.420837509	104.4200783
      0.42747497499999998	104.9213567
      0.43425898400000001	105.43288579999999
      0.44146202099999998	105.9749185
      0.44856258700000001	106.5079061
      0.45587690400000003	107.05707719999999
      0.46342101400000002	107.62377619999999
      0.47120716099999999	108.2090887
      0.47924850299999999	108.8142005
      0.48755929799999997	109.4404164
      0.496155022	110.0891769
      0.50505251799999995	110.7620768
      0.51427015700000001	111.4608879
      0.52382802100000003	112.1875854
      0.53374812500000002	112.944379
      0.54405466000000002	113.73375040000001
      0.55477427700000004	114.558498
      0.56593642099999997	115.4217907
      0.57757370900000005	116.3272333
      0.58972237000000005	117.2789456
      0.60242275199999995	118.28165920000001
      0.61571989900000001	119.3408371
      0.62966422099999997	120.4628209
      0.64431222899999996	121.65501310000001
      0.65972736300000001	122.92610569999999
      0.67598086099999999	124.28636400000001
      0.69315263800000004	125.74798269999999
      0.71133206000000004	127.3255305
      0.73061842099999996	129.03650049999999
      0.75112078999999998	130.90198509999999
      0.772956635	132.94748089999999
      0.79624826999999998	135.20380520000001
      0.82111564500000001	137.70804709999999
      0.84766332799999999	140.50436830000001
      0.87595905799999996	143.6442744
      0.90600166900000001	147.18571779999999
      0.93767904199999996	151.19014369999999
      0.97072398500000001	155.71669249999999
      1.0046871660000001	160.81373919999999
      1.0389539999999999	166.5100477
      1.0728218	172.80985770000001
      1.1056189649999999	179.69557180000001
      1.1368151129999999	187.13741469999999
      1.166076154	195.10516089999999
      1.1932571599999999	203.57694960000001
      1.2183581130000001	212.54344710000001
      1.2414717689999999	222.00841339999999
      1.262740478	231.98749659999999
      1.2823264919999999	242.50660869999999
      1.3003940249999999	253.6005657
      1.317099609	265.31223169999998
      1.332587655	277.69219570000001
      1.346989049	290.79894300000001
      1.360421377	304.69948410000001
      1.3729899480000001	319.47042970000001
      1.3847891750000001	335.19953839999999
      1.395904035	351.98780690000001
      1.406411522	369.95222330000001
      1.416382027	389.22936779999998
      1.4258806550000001	409.98013700000001
      1.4349684949999999	432.3959911
      1.443703884	456.70731569999998
      1.452143746	483.19477810000001
      1.460345062	512.205018
      1.468366627	544.17275689999997
      1.476271267	579.65265699999998
      1.484128812	619.36640990000001
      1.4920203320000001	664.27439319999996
      1.5000444559999999	715.68841520000001
      1.5083273020000001	775.45608200000004
      1.517038858	846.27605440000002
      1.52642144	932.26565330000005
      1.5368418420000001	1040.044543
      1.5488919160000001	1180.938134
      1.5635876129999999	1375.704356
      1.5827254589999999	1664.518061
      1.609038255	2120.3213700000001
      1.6429877180000001	2803.4219309999999
      1.6763000130000001	3588.174364
      1.7038913950000001	4346.5592559999996
      1.7268422349999999	5076.0393119999999
      1.746445904	5791.6494789999997
      1.7635818270000001	6506.5344940000004
      1.778835427	7231.1495919999998
      1.792609184	7974.1327339999998
      1.805191346	8743.1111569999994
      1.8167966790000001	9545.295204
      1.8275911469999999	10387.927960000001
      1.837707435	11278.663500000001
      1.8472551399999999	12225.930109999999
      1.8563277979999999	13239.325269999999
      1.865008022	14330.08987
      1.873371527	15511.71947
      1.8814906259999999	16800.793989999998
      1.88943763	18218.15107
      1.8972886259999999	19790.607090000001
      1.905128269	21553.57647
      1.913056538	23555.22162
      1.921199232	25863.341659999998
      1.92972568	28577.465530000001
      1.938881257	31851.611560000001
      1.949053186	35941.14198
      1.960921235	41311.621829999996
      1.975868577	48939.738250000002
      1.9972472800000001	61282.289870000001
      2.0280781640000001	81252.957920000001
      2.0737002590000002	113566.1776
      2.1433819129999998	165850.06529999999
      2.250195926	248560.18210000001
      2.3541325240000002	331270.29889999999
      2.4580691219999999	413980.41570000001
      2.5620057200000002	496690.53249999997
      2.665942319	579400.64930000005
      2.7698789170000002	662110.76610000001
      2.873815515	744820.88289999997
      2.9777521130000002	827530.99970000004
      3.081688711	910241.1165
  <EndBlock>
  <BeginBlock>
    <BlockName> = "ShaftAir"
    <Mu_x> = 1
    <Mu_y> = 1
    <H_c> = 0
    <H_cAngle> = 0
    <J_re> = 0
    <J_im> = 0
    <Sigma> = 0
    <d_lam> = 0
    <Phi_h> = 0
    <Phi_hx> = 0
    <Phi_hy> = 0
    <LamType> = 0
    <LamFill> = 1
    <NStrands> = 0
    <WireD> = 0
    <BHPoints> = 3
      -100	-7.9577471545947675e-011
      0	0
      100	7.9577471545947675e-011
  <EndBlock>
  <BeginBlock>
    <BlockName> = "Copper"
    <Mu_x> = 1
    <Mu_y> = 1
    <H_c> = 0
    <H_cAngle> = 0
    <J_re> = 0
    <J_im> = 0
    <Sigma> = 58
    <d_lam> = 0
    <Phi_h> = 0
    <Phi_hx> = 0
    <Phi_hy> = 0
    <LamType> = 0
    <LamFill> = 1
    <NStrands> = 0
    <WireD> = 0
    <BHPoints> = 0
  <EndBlock>
  <BeginBlock>
    <BlockName> = "Aluminium"
    <Mu_x> = 1
    <Mu_y> = 1
    <H_c> = 0
    <H_cAngle> = 0
    <J_re> = 0
    <J_im> = 0
    <Sigma> = 29
    <d_lam> = 0
    <Phi_h> = 0
    <Phi_hx> = 0
    <Phi_hy> = 0
    <LamType> = 0
    <LamFill> = 1
    <NStrands> = 0
    <WireD> = 0
    <BHPoints> = 0
  <EndBlock>
  <BeginBlock>
    <BlockName> = "Air"
    <Mu_x> = 1
    <Mu_y> = 1
    <H_c> = 0
    <H_cAngle> = 0
    <J_re> = 0
    <J_im> = 0
    <Sigma> = 0
    <d_lam> = 0
    <Phi_h> = 0
    <Phi_hx> = 0
    <Phi_hy> = 0
    <LamType> = 0
    <LamFill> = 1
    <NStrands> = 0
    <WireD> = 0
    <BHPoints> = 0
  <EndBlock>
  <BeginBlock>
    <BlockName> = "DW235"
    <Mu_x> = 1
    <Mu_y> = 1
    <H_c> = 0
    <H_cAngle> = 0
    <J_re> = 0
    <J_im> = 0
    <Sigma> = 0
    <d_lam> = 0
    <Phi_h> = 0
    <Phi_hx> = 0
    <Phi_hy> = 0
    <LamType> = 0
    <LamFill> = 1
    <NStrands> = 0
    <WireD> = 0
    <BHPoints> = 0
  <EndBlock>
  <BeginBlock>
    <BlockName> = "Air"
    <Mu_x> = 1
    <Mu_y> = 1
    <H_c> = 0
    <H_cAngle> = 0
    <J_re> = 0
    <J_im> = 0
    <Sigma> = 0
    <d_lam> = 0
    <Phi_h> = 0
    <Phi_hx> = 0
    <Phi_hy> = 0
    <LamType> = 0
    <LamFill> = 1
    <NStrands> = 0
    <WireD> = 0
    <BHPoints> = 0
  <EndBlock>
[CircuitProps]  = 6
  <BeginCircuit>
    <CircuitName> = "fase1"
    <TotalAmps_re> = 1002.9353609665015
    <TotalAmps_im> = 0
    <CircuitType> = 1
  <EndCircuit>
  <BeginCircuit>
    <CircuitName> = "fase2"
    <TotalAmps_re> = -865.07414564979581
    <TotalAmps_im> = -0
    <CircuitType> = 1
  <EndCircuit>
  <BeginCircuit>
    <CircuitName> = "fase3"
    <TotalAmps_re> = -137.86121531670528
    <TotalAmps_im> = -0
    <CircuitType> = 1
  <EndCircuit>
  <BeginCircuit>
    <CircuitName> = "fase1n"
    <TotalAmps_re> = -1002.9353609665015
    <TotalAmps_im> = -0
    <CircuitType> = 1
  <EndCircuit>
  <BeginCircuit>
    <CircuitName> = "fase2n"
    <TotalAmps_re> = 865.07414564979581
    <TotalAmps_im> = 0
    <CircuitType> = 1
  <EndCircuit>
  <BeginCircuit>
    <CircuitName> = "fase3n"
    <TotalAmps_re> = 137.86121531670528
    <TotalAmps_im> = 0
    <CircuitType> = 1
  <EndCircuit>
[NumPoints] = 131
1289.8211364492365	135.56566417600274	0	2
1273.9676177929932	133.89939222136815	0	2
1299.9675855890387	165.55174720318777	0	2
1307.1600518346916	188.22899619871322	0	2
1306.0027366530114	188.87403227675844	0	2
1260.3284603707998	132.46585901084032	0	2
1239.1904354958085	130.24416307132751	0	2
1289.9132820937937	195.64269832177206	0	2
1301.6726593295109	223.03776379009818	0	2
1300.0996672021729	223.98859232807564	0	2
1223.5642211777081	128.60178176532602	0	2
1202.4261963027168	126.38008582581321	0	2
1283.6286864687077	234.37991662947385	0	2
1295.3234219981873	257.36120248661177	0	2
1291.0887137772615	259.90230817094886	0	2
1305.9803185544852	108.34441440400965	0	2
1317.7304773377848	87.658115526076713	0	2
1316.7325628111564	86.786555677717843	0	2
1302.4019862389412	76.820615523876882	0	2
1319.6001472497649	52.469109968130027	0	2
1318.2592171434444	51.212015862160243	0	2
1304.3086446626121	37.623257474579219	0	2
1320.5259001617128	17.575640089242683	0	2
1316.9120560549836	14.209618314564736	0	2
1327.5	0	0	20
428.56999999999999	0	0	2
1298.4909399741271	276.00276956057547	0	20
419.20471724648712	89.104713333767108	0	2
0	0	0	2
1500	0	0	1
1333.0714285714287	0	0	20
1467.2214011007086	311.86753622663895	0	1
1303.9406194639298	277.16113469513158	0	20
1343.0124561351456	30.42334664255624	0	1
1343.1342724274134	23.444495932534789	0	1
1347.2343984690006	39.905984381697266	0	1
1454.4047931004015	43.648457028960053	0	1
1468.6935001534412	30.174237524668058	0	1
1468.8012603771178	25.638021366530413	0	1
1468.8518774589106	21.100807771140985	0	1
1455.0421181792985	7.1361277126292144	0	1
1347.8063984448477	7.1361277126292144	0	1
1343.2560887196812	16.465645222513338	0	1
1406.2133016291455	7.136127712629218	0	1
1405.6057217459802	41.944355906780956	0	1
1332.7283084135372	30.243836176344182	0	1
1332.9719409980728	16.28613475630128	0	1
1341.1325697480195	77.275272346099158	0	1
1341.4978702104347	70.30492429065832	0	1
1345.0210009041693	86.899477181100309	0	1
1451.9954998149956	94.379862849188925	0	1
1466.7457460529254	81.41252016003827	0	1
1467.0117522928383	76.882828119790574	0	1
1467.2206850109833	72.350144983011162	0	1
1453.9066985692507	57.912018181836856	0	1
1346.7363039378497	54.16954553457407	0	1
1341.8631706728504	63.33457623521749	0	1
1405.1076272148293	56.207917059657767	0	1
1403.2856278078309	90.973736789551452	0	1
1330.8609516762583	76.736959653314599	0	1
1331.5915526010892	62.796263542432932	0	1
1337.6187199102906	124.03305003363155	0	1
1338.2270594805107	117.07969692817709	0	1
1341.1689024343389	133.78709635339649	0	1
1447.8171736758261	144.99628134463944	0	1
1463.010988195706	132.55161418023084	0	1
1463.4349163642266	128.03396498987857	0	1
1463.8019101663904	123.51133468790503	0	1
1450.9999176041542	108.61735177755247	0	1
1344.025418693328	101.13696610946387	0	1
1338.8353990507308	110.12634382272262	0	1
1402.2900455969896	105.21122571791501	0	1
1399.2558464917777	139.89228018747374	0	1
1327.3721458727755	123.13659096536995	0	1
1328.5888250132157	109.22988475446101	0	1
1332.4751877067195	170.63971255552468	0	1
1333.3258252166852	163.71182598973363	0	1
1335.6827962481241	180.51171655710843	0	1
1441.8749053296713	195.43604420623646	0	1
1457.4937768089371	183.52921447655572	0	1
1458.0751104148933	179.02911219574682	0	1
1458.5997181756588	174.52204485694432	0	1
1446.3253167488601	159.19035186134755	0	1
1339.6770455073731	147.98116687010463	0	1
1334.1764627266512	156.7839394239426	0	1
1397.7639895648122	154.08635070418194	0	1
1393.5212874656145	188.64038639074147	0	1
1322.2661415755517	169.38619930907174	0	1
1323.9674165954834	155.53042617748966	0	1
1325.7082397389959	217.03847687270161	0	1
1326.8001388179325	210.14449740919528	0	1
1328.5693663208438	227.01641103989385	0	1
1434.1759345151752	245.63769835258299	0	1
1450.2008337648319	234.28321269554922	0	1
1450.9388645427725	229.80614000572518	0	1
1451.6204471083934	225.32012679738554	0	1
1439.8885912844441	209.56940302279352	0	1
1333.6964822028972	194.64507537366549	0	1
1327.8920378968687	203.25051794568896	0	1
1391.5349734203876	202.77374520729853	0	1
1386.0889374061735	237.15866334101599	0	1
1315.5491596643033	215.42943666085924	0	1
1317.7329578221761	201.64147773384661	0	1
1317.3261204908501	263.17281323802354	0	1
1318.6579508279233	256.3211401288421	0	1
1319.8372792711234	273.24452099502457	0	1
1424.7296412423395	295.54008080107366	0	1
1441.1410443910977	284.75177290843556	0	1
1442.0348731642046	280.30318443302872	0	1
1442.8726001313139	275.843690871229	0	1
1431.6975833693821	259.69312614834797	0	1
1326.0910151750506	241.07183883565892	0	1
1319.9897811649969	249.4694670196607	0	1
1383.6105862603806	251.21409113678106	0	1
1376.9678514871362	285.38799899150109	0	1
1307.2293837468171	261.21020642843627	0	1
1309.8930444209639	247.50686021007343	0	1
1499.0862405286437	52.349245053751453	0	1
1332.2593574755276	46.523521925626831	0	1
1496.3460753897364	104.63471061618796	0	1
1329.8241335713642	92.990362106186467	0	1
1491.78284305241	156.79269490148022	0	1
1325.768723804149	139.34390785458692	0	1
1485.4021031123555	208.7596514400982	0	1
1320.0980690659949	185.52768451555013	0	1
1477.2116295183121	260.47226650039556	0	1
1312.8190781762028	231.4854242712801	0	1
1331.2142857142858	0	0	20
1302.1240596339956	276.7750129836129	0	20
1329.3571428571429	0	0	20
1300.3074998040613	276.38889127209421	0	20
[NumSegments] = 96
0	1	5.7142857142857135	0	0	2
5	6	5.7142857142857135	0	0	2
10	11	5.7142857142857135	0	0	2
24	25	-1	4	0	2
27	26	-1	4	0	2
25	28	-1	2	0	2
28	27	-1	2	0	2
29	30	-1	10	0	1
32	31	-1	10	0	1
33	34	5.7142857142857135	0	0	1
35	33	5.7142857142857135	0	0	1
36	44	5.7142857142857135	0	0	1
38	37	5.7142857142857135	0	0	1
39	38	5.7142857142857135	0	0	1
41	43	5.7142857142857135	0	0	1
42	41	5.7142857142857135	0	0	1
34	42	5.7142857142857135	0	0	1
43	40	5.7142857142857135	0	0	1
44	35	5.7142857142857135	0	0	1
43	44	5.7142857142857135	0	0	1
33	45	5.7142857142857135	0	0	1
46	42	5.7142857142857135	0	0	1
47	48	5.7142857142857135	0	0	1
49	47	5.7142857142857135	0	0	1
50	58	5.7142857142857135	0	0	1
52	51	5.7142857142857135	0	0	1
53	52	5.7142857142857135	0	0	1
55	57	5.7142857142857135	0	0	1
56	55	5.7142857142857135	0	0	1
48	56	5.7142857142857135	0	0	1
57	54	5.7142857142857135	0	0	1
58	49	5.7142857142857135	0	0	1
57	58	5.7142857142857135	0	0	1
47	59	5.7142857142857135	0	0	1
60	56	5.7142857142857135	0	0	1
61	62	5.7142857142857135	0	0	1
63	61	5.7142857142857135	0	0	1
64	72	5.7142857142857135	0	0	1
66	65	5.7142857142857135	0	0	1
67	66	5.7142857142857135	0	0	1
69	71	5.7142857142857135	0	0	1
70	69	5.7142857142857135	0	0	1
62	70	5.7142857142857135	0	0	1
71	68	5.7142857142857135	0	0	1
72	63	5.7142857142857135	0	0	1
71	72	5.7142857142857135	0	0	1
61	73	5.7142857142857135	0	0	1
74	70	5.7142857142857135	0	0	1
75	76	5.7142857142857135	0	0	1
77	75	5.7142857142857135	0	0	1
78	86	5.7142857142857135	0	0	1
80	79	5.7142857142857135	0	0	1
81	80	5.7142857142857135	0	0	1
83	85	5.7142857142857135	0	0	1
84	83	5.7142857142857135	0	0	1
76	84	5.7142857142857135	0	0	1
85	82	5.7142857142857135	0	0	1
86	77	5.7142857142857135	0	0	1
85	86	5.7142857142857135	0	0	1
75	87	5.7142857142857135	0	0	1
88	84	5.7142857142857135	0	0	1
89	90	5.7142857142857135	0	0	1
91	89	5.7142857142857135	0	0	1
92	100	5.7142857142857135	0	0	1
94	93	5.7142857142857135	0	0	1
95	94	5.7142857142857135	0	0	1
97	99	5.7142857142857135	0	0	1
98	97	5.7142857142857135	0	0	1
90	98	5.7142857142857135	0	0	1
99	96	5.7142857142857135	0	0	1
100	91	5.7142857142857135	0	0	1
99	100	5.7142857142857135	0	0	1
89	101	5.7142857142857135	0	0	1
102	98	5.7142857142857135	0	0	1
103	104	5.7142857142857135	0	0	1
105	103	5.7142857142857135	0	0	1
106	114	5.7142857142857135	0	0	1
108	107	5.7142857142857135	0	0	1
109	108	5.7142857142857135	0	0	1
111	113	5.7142857142857135	0	0	1
112	111	5.7142857142857135	0	0	1
104	112	5.7142857142857135	0	0	1
113	110	5.7142857142857135	0	0	1
114	105	5.7142857142857135	0	0	1
113	114	5.7142857142857135	0	0	1
103	115	5.7142857142857135	0	0	1
116	112	5.7142857142857135	0	0	1
117	118	5.7142857142857135	0	0	1
119	120	5.7142857142857135	0	0	1
121	122	5.7142857142857135	0	0	1
123	124	5.7142857142857135	0	0	1
125	126	5.7142857142857135	0	0	1
127	30	0.5714285714285714	7	0	20
128	32	0.5714285714285714	7	0	20
129	24	0.5714285714285714	5	0	20
130	26	0.5714285714285714	5	0	20
[NumArcSegments] = 64
2	0	49.388753596916899	2.1604347093954135	0	0	2	2.1604347093954135
2	3	51.58292884645703	2.9938950909833353	0	0	2	2.9938950909833353
3	4	105.34494188100656	10	0	0	2	10
4	1	72.46088286943143	1.5206258580250265	0	0	2	1.5206258580250265
7	5	62.186058485007038	1.2118633140614423	0	0	2	1.2118633140614423
7	8	65.909099211698361	2.9870127454883448	0	0	2	2.9870127454883448
8	9	98.250406631426273	10	0	0	2	10
9	6	78.026552641869159	0.92178831458039323	0	0	2	0.92178831458039323
12	10	71.178802811398782	0.78320214220772688	0	0	2	0.78320214220772688
12	13	76.416265292559586	3.926702987777658	0	0	2	3.926702987777658
13	14	95.591975985780593	10	0	0	2	10
14	11	79.170561533062028	0.65083752328078659	0	0	2	0.65083752328078659
0	15	49.3887535969167	2.1604347093955316	0	0	2	2.1604347093955316
16	15	51.582928846457342	2.9938950909835116	0	0	2	2.9938950909835116
17	16	105.34494188100342	10	0	0	2	10
1	17	72.460882869431686	1.520625858024919	0	0	2	1.520625858024919
5	18	62.186058485006896	1.2118633140613755	0	0	2	1.2118633140613755
19	18	65.909099211699029	2.9870127454887485	0	0	2	2.9870127454887485
20	19	98.250406631427396	10	0	0	2	10
6	20	78.026552641869003	0.92178831458039756	0	0	2	0.92178831458039756
10	21	71.178802811398754	0.78320214220772744	0	0	2	0.78320214220772744
22	21	76.416265292559487	3.9267029877785813	0	0	2	3.9267029877785813
23	22	95.591975985781545	10	0	0	2	10
11	23	79.170561533062028	0.6508375232807907	0	0	2	0.6508375232807907
24	26	11.999999999999998	0.061658089333421914	0	0	2	0.061658089333421914
25	27	11.999999999999998	0.19098656833216884	0	0	2	0.19098656833216884
29	117	1.9999999999999998	5.7142857142857135	1	0	1	0.17999999999999999
30	46	0.69999999999999984	0.061400395984656603	0	0	1	0.061400395984656603
37	36	90.639164278356191	5.9266797471402599	0	0	1	5.9266797471402599
40	39	90.639164278356247	5.9266797471401835	0	0	1	5.9266797471401835
45	118	0.6999999999999994	0.061400395984656603	0	0	1	0.061400395984656603
46	45	0.60000000000000009	0.061400395984656603	0	0	1	0.061400395984656603
51	50	90.6391642783572	5.9266797471403132	0	0	1	5.9266797471403132
54	53	90.639164278355338	5.9266797471401818	0	0	1	5.9266797471401818
59	120	0.70000000000000184	0.061400395984656603	0	0	1	0.061400395984656603
60	59	0.60000000000000009	0.061400395984656603	0	0	1	0.061400395984656603
65	64	90.639164278355935	5.9266797471403008	0	0	1	5.9266797471403008
68	67	90.639164278356319	5.9266797471401818	0	0	1	5.9266797471401818
73	122	0.69999999999999996	0.061400395984656603	0	0	1	0.061400395984656603
74	73	0.60000000000000131	0.061400395984656603	0	0	1	0.061400395984656603
79	78	90.639164278356375	5.9266797471401835	0	0	1	5.9266797471401835
82	81	90.639164278356716	5.9266797471401773	0	0	1	5.9266797471401773
87	124	0.70000000000000084	0.061400395984656603	0	0	1	0.061400395984656603
88	87	0.59999999999999976	0.061400395984656603	0	0	1	0.061400395984656603
93	92	90.639164278356859	5.9266797471402271	0	0	1	5.9266797471402271
96	95	90.639164278356191	5.926679747140188	0	0	1	5.926679747140188
101	126	0.69999999999999929	0.061400395984656603	0	0	1	0.061400395984656603
102	101	0.60000000000000231	0.061400395984656603	0	0	1	0.061400395984656603
107	106	90.639164278355636	5.926679747140212	0	0	1	5.926679747140212
110	109	90.639164278356873	5.9266797471401897	0	0	1	5.9266797471401897
115	32	0.69999999999999762	0.061400395984656603	0	0	1	0.061400395984656603
116	115	0.60000000000000064	0.061400395984656603	0	0	1	0.061400395984656603
117	119	2	5.7142857142857135	1	0	1	0.28999999999999998
118	60	0.7000000000000004	0.061400395984656603	0	0	1	0.061400395984656603
119	121	2.0000000000000004	5.7142857142857135	1	0	1	0.28999999999999998
120	74	0.69999999999999984	0.061400395984656603	0	0	1	0.061400395984656603
121	123	2.0000000000000013	5.7142857142857135	1	0	1	0.40000000000000002
122	88	0.70000000000000084	0.061400395984656603	0	0	1	0.061400395984656603
123	125	2.0000000000000018	5.7142857142857135	1	0	1	0.40000000000000002
124	102	0.69999999999999918	0.061400395984656603	0	0	1	0.061400395984656603
125	31	1.9999999999999931	5.7142857142857135	1	0	1	0.17999999999999999
126	116	0.69999999999999918	0.061400395984656603	0	0	1	0.061400395984656603
127	128	12	0.5714285714285714	11	0	20	0.035999999999999997
129	130	12	0.5714285714285714	11	0	20	0.035999999999999997
[NumHoles] = 0
[NumBlockLabels] = 34
1304.3767913589136	180.88492522621976	7	5.7142857142857135	0	0	2	1	0
1297.2285362084924	214.2230181466486	7	5.7142857142857135	0	0	2	1	0
1290.0136074147188	250.54780909567813	7	5.7142857142857135	0	0	2	1	0
1313.4811195678085	94.263028535934708	7	5.7142857142857135	0	0	2	1	0
1313.420450210717	60.167247118055727	7	5.7142857142857135	0	0	2	1	0
1313.9155336264364	23.136171959462203	7	5.7142857142857135	0	0	2	1	0
814.32422250034881	85.588924664215725	1	5.7142857142857135	0	0	22	1	0
213.11112434899044	22.398881751309119	7	5.7142857142857135	0	0	2	1	0
1374.521892057488	23.992368871119936	3	5.7142857142857135	1	0	1	1	0
1437.2971313176374	25.088114748290238	3	5.7142857142857135	1	0	1	1	0
1338.0013338816973	23.354900156946758	7	5.7142857142857135	0	0	10	1	0
1484.2864015558523	25.90831551122784	1	5.7142857142857135	0	0	12	1	0
1372.8472488608822	71.94787560763146	3	5.7142857142857135	1	0	1	1	0
1435.5460061617775	75.233778241577738	3	5.7142857142857135	1	0	1	1	0
1336.3711853596681	70.03624612254562	7	5.7142857142857135	0	0	10	1	0
1482.4780272123496	77.693381242103158	1	5.7142857142857135	0	0	12	1	0
1369.5000027624469	119.81572494043573	3	5.7142857142857135	3	0	1	-1	0
1432.0458893263201	125.28778096495303	3	5.7142857142857135	3	0	1	-1	0
1333.1128744004784	116.63226371050087	7	5.7142857142857135	0	0	10	1	0
1478.8634817509223	129.38378955568291	1	5.7142857142857135	0	0	12	1	0
1364.4842318659494	167.53759726859764	3	5.7142857142857135	3	0	1	-1	0
1426.8010451644775	175.18913982632571	3	5.7142857142857135	3	0	1	-1	0
1328.2303707541282	163.08618285094781	7	5.7142857142857135	0	0	10	1	0
1473.4471689384382	180.91656365173398	1	5.7142857142857135	0	0	12	1	0
1357.8060471156064	215.05535084167624	3	5.7142857142857135	2	0	1	1	0
1419.8178637109545	224.87705770663828	3	5.7142857142857135	2	0	1	1	0
1321.7296229992182	209.34140659909156	7	5.7142857142857135	0	0	10	1	0
1466.2356877177394	232.22891878303574	1	5.7142857142857135	0	0	12	1	0
1349.4735848508408	262.31109259649156	3	5.7142857142857135	2	0	1	1	0
1411.1048528966755	274.29099753179054	3	5.7142857142857135	2	0	1	1	0
1313.6185512955246	255.34158008986594	7	5.7142857142857135	0	0	10	1	0
1457.2378241678502	283.25833874892294	1	5.7142857142857135	0	0	12	1	0
1324.8452391870212	139.24684571012406	7	0.5714285714285714	0	0	20	1	0
1321.1513007185104	138.85859713227276	7	0.5714285714285714	0	0	20	1	0
