[Format]      =  4.0
[Frequency]   =  0
[Precision]   =  1e-008
[MinAngle]    =  15
[DoSmartMesh] =  1
[Depth]       =  300
[LengthUnits] =  millimeters
[ProblemType] =  planar
[Coordinates] =  cartesian
[ACSolver]    =  0
[PrevType]    =  0
[PrevSoln]    =  ""
[Comment]     =  "Add comments here."
[PointProps]   = 0
[BdryProps]   = 11
  <BeginBdry>
    <BdryName> = "A=0"
    <BdryType> = 0
    <A_0> = 0
    <A_1> = 0
    <A_2> = 0
    <Phi> = 0
    <c0> = 0
    <c0i> = 0
    <c1> = 0
    <c1i> = 0
    <Mu_ssd> = 0
    <Sigma_ssd> = 0
    <innerangle> = 0
    <outerangle> = 0
  <EndBdry>
  <BeginBdry>
    <BdryName> = "APr1"
    <BdryType> = 5
    <A_0> = 0
    <A_1> = 0
    <A_2> = 0
    <Phi> = 0
    <c0> = 0
    <c0i> = 0
    <c1> = 0
    <c1i> = 0
    <Mu_ssd> = 0
    <Sigma_ssd> = 0
    <innerangle> = 0
    <outerangle> = 0
  <EndBdry>
  <BeginBdry>
    <BdryName> = "APr2"
    <BdryType> = 5
    <A_0> = 0
    <A_1> = 0
    <A_2> = 0
    <Phi> = 0
    <c0> = 0
    <c0i> = 0
    <c1> = 0
    <c1i> = 0
    <Mu_ssd> = 0
    <Sigma_ssd> = 0
    <innerangle> = 0
    <outerangle> = 0
  <EndBdry>
  <BeginBdry>
    <BdryName> = "APr3"
    <BdryType> = 5
    <A_0> = 0
    <A_1> = 0
    <A_2> = 0
    <Phi> = 0
    <c0> = 0
    <c0i> = 0
    <c1> = 0
    <c1i> = 0
    <Mu_ssd> = 0
    <Sigma_ssd> = 0
    <innerangle> = 0
    <outerangle> = 0
  <EndBdry>
  <BeginBdry>
    <BdryName> = "APg1"
    <BdryType> = 5
    <A_0> = 0
    <A_1> = 0
    <A_2> = 0
    <Phi> = 0
    <c0> = 0
    <c0i> = 0
    <c1> = 0
    <c1i> = 0
    <Mu_ssd> = 0
    <Sigma_ssd> = 0
    <innerangle> = 0
    <outerangle> = 0
  <EndBdry>
  <BeginBdry>
    <BdryName> = "APg2"
    <BdryType> = 5
    <A_0> = 0
    <A_1> = 0
    <A_2> = 0
    <Phi> = 0
    <c0> = 0
    <c0i> = 0
    <c1> = 0
    <c1i> = 0
    <Mu_ssd> = 0
    <Sigma_ssd> = 0
    <innerangle> = 0
    <outerangle> = 0
  <EndBdry>
  <BeginBdry>
    <BdryName> = "APg3"
    <BdryType> = 5
    <A_0> = 0
    <A_1> = 0
    <A_2> = 0
    <Phi> = 0
    <c0> = 0
    <c0i> = 0
    <c1> = 0
    <c1i> = 0
    <Mu_ssd> = 0
    <Sigma_ssd> = 0
    <innerangle> = 0
    <outerangle> = 0
  <EndBdry>
  <BeginBdry>
    <BdryName> = "APs1"
    <BdryType> = 5
    <A_0> = 0
    <A_1> = 0
    <A_2> = 0
    <Phi> = 0
    <c0> = 0
    <c0i> = 0
    <c1> = 0
    <c1i> = 0
    <Mu_ssd> = 0
    <Sigma_ssd> = 0
    <innerangle> = 0
    <outerangle> = 0
  <EndBdry>
  <BeginBdry>
    <BdryName> = "APs2"
    <BdryType> = 5
    <A_0> = 0
    <A_1> = 0
    <A_2> = 0
    <Phi> = 0
    <c0> = 0
    <c0i> = 0
    <c1> = 0
    <c1i> = 0
    <Mu_ssd> = 0
    <Sigma_ssd> = 0
    <innerangle> = 0
    <outerangle> = 0
  <EndBdry>
  <BeginBdry>
    <BdryName> = "APs3"
    <BdryType> = 5
    <A_0> = 0
    <A_1> = 0
    <A_2> = 0
    <Phi> = 0
    <c0> = 0
    <c0i> = 0
    <c1> = 0
    <c1i> = 0
    <Mu_ssd> = 0
    <Sigma_ssd> = 0
    <innerangle> = 0
    <outerangle> = 0
  <EndBdry>
  <BeginBdry>
    <BdryName> = "AGap"
    <BdryType> = 7
    <A_0> = 0
    <A_1> = 0
    <A_2> = 0
    <Phi> = 0
    <c0> = 0
    <c0i> = 0
    <c1> = 0
    <c1i> = 0
    <Mu_ssd> = 0
    <Sigma_ssd> = 0
    <innerangle> = 0
    <outerangle> = 0
  <EndBdry>
[BlockProps]  = 15
  <BeginBlock>
    <BlockName> = "M270-35A"
    <Mu_x> = 1
    <Mu_y> = 1
    <H_c> = 0
    <H_cAngle> = 0
    <J_re> = 0
    <J_im> = 0
    <Sigma> = 0
    <d_lam> = 0
    <Phi_h> = 0
    <Phi_hx> = 0
    <Phi_hy> = 0
    <LamType> = 0
    <LamFill> = 1
    <NStrands> = 0
    <WireD> = 0
    <BHPoints> = 200
      0	0
      0.0045422769999999999	3.2767874890000002
      0.0090353559999999996	6.114592773
      0.013222249	8.4602422570000009
      0.017196487	10.462328400000001
      0.020991169	12.199266809999999
      0.024640190999999999	13.72982376
      0.028168996000000002	15.09561901
      0.031597466999999997	16.327217480000002
      0.034941272000000002	17.447599879999999
      0.038212956999999999	18.47443998
      0.041422729999999998	19.421601849999998
      0.044579012000000001	20.300151339999999
      0.047688851999999997	21.119056130000001
      0.050758219	21.885681389999998
      0.053792226999999998	22.60614816
      0.056795300999999999	23.285597330000002
      0.059771310000000001	23.928387470000001
      0.062723663999999998	24.538245379999999
      0.065655396000000005	25.11838217
      0.068569221	25.67158405
      0.071467592999999996	26.200284
      0.074352739000000001	26.70661905
      0.077226698999999996	27.19247648
      0.080091349000000006	27.65953137
      0.082948429000000004	28.109277410000001
      0.085799557999999998	28.54305239
      0.088646256000000007	28.96205934
      0.091489953999999998	29.36738437
      0.094332005999999996	29.760011540000001
      0.097173704999999999	30.140835630000002
      0.100016285	30.510672870000001
      0.102860934	30.870270300000001
      0.105708802	31.220313650000001
      0.108561001	31.561434299999998
      0.11141862	31.894215259999999
      0.114282722	32.21919639
      0.117154355	32.536878999999999
      0.120034552	32.847729870000002
      0.12292433699999999	33.152184810000001
      0.12582473199999999	33.45065185
      0.12873675200000001	33.743513989999997
      0.13166142	34.031131799999997
      0.13459976100000001	34.313845620000002
      0.137552811	34.591977620000002
      0.14052161499999999	34.865833639999998
      0.14350723800000001	35.135704879999999
      0.14651076099999999	35.401869419999997
      0.14953328699999999	35.664593680000003
      0.15257594699999999	35.924133650000002
      0.155639899	36.180736189999998
      0.158726334	36.434640119999997
      0.161836481	36.686077320000003
      0.16497160599999999	36.93527375
      0.16813302299999999	37.182450420000002
      0.17132209400000001	37.427824389999998
      0.17454023399999999	37.671609650000001
      0.17778891699999999	37.914018050000003
      0.18106968000000001	38.155260249999998
      0.18438413100000001	38.395546590000002
      0.18773395400000001	38.635088090000004
      0.191120915	38.87409736
      0.19454686800000001	39.112789630000002
      0.19801376800000001	39.351383830000003
      0.20152367299999999	39.590103640000002
      0.20507876	39.829178749999997
      0.208681327	40.068846100000002
      0.21233381500000001	40.309351300000003
      0.216038808	40.550950149999998
      0.21979905799999999	40.793910310000001
      0.22361749	41.038513199999997
      0.227497227	41.285056060000002
      0.2314416	41.53385428
      0.23545417299999999	41.785244059999997
      0.23953876299999999	42.039585369999998
      0.24369946200000001	42.297265359999997
      0.247940667	42.558702250000003
      0.25226710400000002	42.824349750000003
      0.25668386300000001	43.0947022
      0.26119642799999998	43.370300520000001
      0.26581071499999998	43.651739030000002
      0.27054201700000002	43.94020278
      0.275438138	44.23873004
      0.28051031599999998	44.548036490000001
      0.28576849199999999	44.868763260000001
      0.29122336399999998	45.201605100000002
      0.296886504	45.547319020000003
      0.30277045699999999	45.906731970000003
      0.30888884599999999	46.280749559999997
      0.31525650100000002	46.670366299999998
      0.321889598	47.076677459999999
      0.328805825	47.50089294
      0.33602457000000002	47.944353649999996
      0.34356714500000002	48.408550759999997
      0.351457032	48.895148689999999
      0.35972019	49.406012390000001
      0.36838539799999998	49.943240269999997
      0.37748466600000002	50.509203810000002
      0.38705371900000002	51.106595769999998
      0.39713256899999999	51.738489119999997
      0.40776619800000002	52.408409570000003
      0.41900536300000002	53.120425429999997
      0.43090757000000002	53.879259759999997
      0.44353822799999998	54.690431349999997
      0.45697202599999998	55.560433060000001
      0.47129457299999999	56.49695913
      0.486604327	57.509196449999997
      0.503014823	58.60819978
      0.520657166	59.807376320000003
      0.53968265500000001	61.123111049999999
      0.56026517099999995	62.575567960000001
      0.58260257699999995	64.189698669999999
      0.60691558199999995	65.996464399999994
      0.63344113800000001	68.034201780000004
      0.662415215	70.349880479999996
      0.69403682899999997	72.999622560000006
      0.72840307800000004	76.047204840000006
      0.76540934699999996	79.558509650000005
      0.80463064699999998	83.589963030000007
      0.84524547999999999	88.171938179999998
      0.88609953900000005	93.294734669999997
      0.92594964300000004	98.90894376
      0.963771241	104.9435902
      0.99893980100000002	111.3300564
      1.0312218310000001	118.0174305
      1.0606584889999999	124.9760964
      1.0874410889999999	132.19454709999999
      1.1118223309999999	139.6744898
      1.1340651580000001	147.42664859999999
      1.1544176930000001	155.46782519999999
      1.173103241	163.8190534
      1.1903180360000001	172.50453999999999
      1.2062325739999999	181.55112829999999
      1.220994358	190.98810510000001
      1.234730984	200.84723579999999
      1.2475531	211.16296399999999
      1.2595570490000001	221.97273730000001
      1.270827143	233.31744900000001
      1.281437594	245.2419931
      1.291454146	257.79594609999998
      1.3009354369999999	271.03439809999998
      1.309934159	285.01896390000002
      1.318498043	299.81902289999999
      1.326670706	315.51324579999999
      1.3344924010000001	332.19149570000002
      1.3420006879999999	349.95721329999998
      1.3492310569999999	368.93044570000001
      1.356217531	389.25173360000002
      1.362993272	411.08716509999999
      1.3695912379999999	434.63503709999998
      1.3760449050000001	460.1347695
      1.382389146	487.87903890000001
      1.3886613240000001	518.23060969999995
      1.394902732	551.64618570000005
      1.401160583	588.71104339999999
      1.4074908660000001	630.19074279999995
      1.4139626249999999	677.11087850000001
      1.420664664	730.8848299
      1.4277165590000001	793.52783980000004
      1.435287779	868.03580320000003
      1.4436331710000001	959.10175079999999
      1.453164339	1074.5891859999999
      1.464608755	1228.9034079999999
      1.479413587	1451.8548430000001
      1.5007295060000001	1812.597843
      1.531321148	2396.2922779999999
      1.5749716949999999	3340.7297119999998
      1.6351726849999999	4868.8615820000005
      1.6746062129999999	6056.7860730000002
      1.7053540309999999	7126.7301200000002
      1.7307497590000001	8135.9466300000004
      1.752580204	9119.3875740000003
      1.771845345	10098.25848
      1.789165838	11087.22133
      1.804957089	12097.58993
      1.819514077	13138.977849999999
      1.8330565510000001	14220.25051
      1.845754994	15350.15127
      1.8577465099999999	16537.778849999999
      1.869145125	17793.012470000001
      1.8800488470000001	19126.948680000001
      1.8905448170000001	20552.403480000001
      1.9007133519999999	22084.53774
      1.9106314310000001	23741.68173
      1.920376064	25546.46932
      1.930027954	27527.455720000002
      1.9396760099999999	29721.505959999999
      1.9494234969999999	32177.45292
      1.959397184	34961.935420000002
      1.969762051	38169.180130000001
      1.980746793	41938.394229999998
      1.9926918389999999	46487.096960000003
      2.0061495709999999	52181.595710000001
      2.022124024	59707.652569999998
      2.042772002	70576.241299999994
      2.0725625070000002	88161.987269999998
      2.1158769670000002	116616.322
      2.1803765140000002	162656.4026
      2.2792825830000001	237150.818
      2.3747656959999999	310949.48619999998
  <EndBlock>
  <BeginBlock>
    <BlockName> = "ShaftAir"
    <Mu_x> = 1
    <Mu_y> = 1
    <H_c> = 0
    <H_cAngle> = 0
    <J_re> = 0
    <J_im> = 0
    <Sigma> = 0
    <d_lam> = 0
    <Phi_h> = 0
    <Phi_hx> = 0
    <Phi_hy> = 0
    <LamType> = 0
    <LamFill> = 1
    <NStrands> = 0
    <WireD> = 0
    <BHPoints> = 3
      -100	-7.9577471545947675e-011
      0	0
      100	7.9577471545947675e-011
  <EndBlock>
  <BeginBlock>
    <BlockName> = "Copper"
    <Mu_x> = 1
    <Mu_y> = 1
    <H_c> = 0
    <H_cAngle> = 0
    <J_re> = 0
    <J_im> = 0
    <Sigma> = 58
    <d_lam> = 0
    <Phi_h> = 0
    <Phi_hx> = 0
    <Phi_hy> = 0
    <LamType> = 0
    <LamFill> = 1
    <NStrands> = 0
    <WireD> = 0
    <BHPoints> = 0
  <EndBlock>
  <BeginBlock>
    <BlockName> = "Aluminium"
    <Mu_x> = 1
    <Mu_y> = 1
    <H_c> = 0
    <H_cAngle> = 0
    <J_re> = 0
    <J_im> = 0
    <Sigma> = 29
    <d_lam> = 0
    <Phi_h> = 0
    <Phi_hx> = 0
    <Phi_hy> = 0
    <LamType> = 0
    <LamFill> = 1
    <NStrands> = 0
    <WireD> = 0
    <BHPoints> = 0
  <EndBlock>
  <BeginBlock>
    <BlockName> = "BMN-52UH"
    <Mu_x> = 1.05
    <Mu_y> = 1.05
    <H_c> = 1098926.9880154678
    <H_cAngle> = 0
    <J_re> = 0
    <J_im> = 0
    <Sigma> = 0.66600000000000004
    <d_lam> = 0
    <Phi_h> = 0
    <Phi_hx> = 0
    <Phi_hy> = 0
    <LamType> = 0
    <LamFill> = 1
    <NStrands> = 0
    <WireD> = 0
    <BHPoints> = 0
  <EndBlock>
  <BeginBlock>
    <BlockName> = "DW235"
    <Mu_x> = 1
    <Mu_y> = 1
    <H_c> = 0
    <H_cAngle> = 0
    <J_re> = 0
    <J_im> = 0
    <Sigma> = 0
    <d_lam> = 0
    <Phi_h> = 0
    <Phi_hx> = 0
    <Phi_hy> = 0
    <LamType> = 0
    <LamFill> = 1
    <NStrands> = 0
    <WireD> = 0
    <BHPoints> = 0
  <EndBlock>
  <BeginBlock>
    <BlockName> = "Air"
    <Mu_x> = 1
    <Mu_y> = 1
    <H_c> = 0
    <H_cAngle> = 0
    <J_re> = 0
    <J_im> = 0
    <Sigma> = 0
    <d_lam> = 0
    <Phi_h> = 0
    <Phi_hx> = 0
    <Phi_hy> = 0
    <LamType> = 0
    <LamFill> = 1
    <NStrands> = 0
    <WireD> = 0
    <BHPoints> = 0
  <EndBlock>
  <BeginBlock>
    <BlockName> = "BMN-52UH_1"
    <Mu_x> = 1.05
    <Mu_y> = 1.05
    <H_c> = 1098926.9880154678
    <H_cAngle> = 0
    <J_re> = 0
    <J_im> = 0
    <Sigma> = 0.66600000000000004
    <d_lam> = 0
    <Phi_h> = 0
    <Phi_hx> = 0
    <Phi_hy> = 0
    <LamType> = 0
    <LamFill> = 1
    <NStrands> = 0
    <WireD> = 0
    <BHPoints> = 0
  <EndBlock>
  <BeginBlock>
    <BlockName> = "BMN-52UH_2"
    <Mu_x> = 1.05
    <Mu_y> = 1.05
    <H_c> = 1098926.9880154678
    <H_cAngle> = 0
    <J_re> = 0
    <J_im> = 0
    <Sigma> = 0.66600000000000004
    <d_lam> = 0
    <Phi_h> = 0
    <Phi_hx> = 0
    <Phi_hy> = 0
    <LamType> = 0
    <LamFill> = 1
    <NStrands> = 0
    <WireD> = 0
    <BHPoints> = 0
  <EndBlock>
  <BeginBlock>
    <BlockName> = "BMN-52UH_3"
    <Mu_x> = 1.05
    <Mu_y> = 1.05
    <H_c> = 1098926.9880154678
    <H_cAngle> = 0
    <J_re> = 0
    <J_im> = 0
    <Sigma> = 0.66600000000000004
    <d_lam> = 0
    <Phi_h> = 0
    <Phi_hx> = 0
    <Phi_hy> = 0
    <LamType> = 0
    <LamFill> = 1
    <NStrands> = 0
    <WireD> = 0
    <BHPoints> = 0
  <EndBlock>
  <BeginBlock>
    <BlockName> = "BMN-52UH_4"
    <Mu_x> = 1.05
    <Mu_y> = 1.05
    <H_c> = 1098926.9880154678
    <H_cAngle> = 0
    <J_re> = 0
    <J_im> = 0
    <Sigma> = 0.66600000000000004
    <d_lam> = 0
    <Phi_h> = 0
    <Phi_hx> = 0
    <Phi_hy> = 0
    <LamType> = 0
    <LamFill> = 1
    <NStrands> = 0
    <WireD> = 0
    <BHPoints> = 0
  <EndBlock>
  <BeginBlock>
    <BlockName> = "BMN-52UH_5"
    <Mu_x> = 1.05
    <Mu_y> = 1.05
    <H_c> = 1098926.9880154678
    <H_cAngle> = 0
    <J_re> = 0
    <J_im> = 0
    <Sigma> = 0.66600000000000004
    <d_lam> = 0
    <Phi_h> = 0
    <Phi_hx> = 0
    <Phi_hy> = 0
    <LamType> = 0
    <LamFill> = 1
    <NStrands> = 0
    <WireD> = 0
    <BHPoints> = 0
  <EndBlock>
  <BeginBlock>
    <BlockName> = "BMN-52UH_6"
    <Mu_x> = 1.05
    <Mu_y> = 1.05
    <H_c> = 1098926.9880154678
    <H_cAngle> = 0
    <J_re> = 0
    <J_im> = 0
    <Sigma> = 0.66600000000000004
    <d_lam> = 0
    <Phi_h> = 0
    <Phi_hx> = 0
    <Phi_hy> = 0
    <LamType> = 0
    <LamFill> = 1
    <NStrands> = 0
    <WireD> = 0
    <BHPoints> = 0
  <EndBlock>
  <BeginBlock>
    <BlockName> = "BMN-52UH_7"
    <Mu_x> = 1.05
    <Mu_y> = 1.05
    <H_c> = 1098926.9880154678
    <H_cAngle> = 0
    <J_re> = 0
    <J_im> = 0
    <Sigma> = 0.66600000000000004
    <d_lam> = 0
    <Phi_h> = 0
    <Phi_hx> = 0
    <Phi_hy> = 0
    <LamType> = 0
    <LamFill> = 1
    <NStrands> = 0
    <WireD> = 0
    <BHPoints> = 0
  <EndBlock>
  <BeginBlock>
    <BlockName> = "BMN-52UH_8"
    <Mu_x> = 1.05
    <Mu_y> = 1.05
    <H_c> = 1098926.9880154678
    <H_cAngle> = 0
    <J_re> = 0
    <J_im> = 0
    <Sigma> = 0.66600000000000004
    <d_lam> = 0
    <Phi_h> = 0
    <Phi_hx> = 0
    <Phi_hy> = 0
    <LamType> = 0
    <LamFill> = 1
    <NStrands> = 0
    <WireD> = 0
    <BHPoints> = 0
  <EndBlock>
[CircuitProps]  = 6
  <BeginCircuit>
    <CircuitName> = "fase1"
    <TotalAmps_re> = 0
    <TotalAmps_im> = 0
    <CircuitType> = 1
  <EndCircuit>
  <BeginCircuit>
    <CircuitName> = "fase2"
    <TotalAmps_re> = 0
    <TotalAmps_im> = 0
    <CircuitType> = 1
  <EndCircuit>
  <BeginCircuit>
    <CircuitName> = "fase3"
    <TotalAmps_re> = 0
    <TotalAmps_im> = 0
    <CircuitType> = 1
  <EndCircuit>
  <BeginCircuit>
    <CircuitName> = "fase1n"
    <TotalAmps_re> = 0
    <TotalAmps_im> = 0
    <CircuitType> = 1
  <EndCircuit>
  <BeginCircuit>
    <CircuitName> = "fase2n"
    <TotalAmps_re> = 0
    <TotalAmps_im> = 0
    <CircuitType> = 1
  <EndCircuit>
  <BeginCircuit>
    <CircuitName> = "fase3n"
    <TotalAmps_re> = 0
    <TotalAmps_im> = 0
    <CircuitType> = 1
  <EndCircuit>
[NumPoints] = 195
451.42793165531407	47.208839690218383	0	2
452.09769382885463	39.553423016238867	0	2
453.42395937010747	47.560793230578327	0	2
456.11900278326152	51.16334349882105	0	2
455.502709380326	51.624388412223247	0	2
447.51012323043233	50.215079828360196	0	2
448.47065962140243	39.236098640866068	0	2
442.79124478583799	54.042481377160136	0	2
444.11993701230028	38.855459734423697	0	2
448.97279128768497	55.132454807939787	0	2
454.64586025495157	62.923558155990932	0	2
453.81163838203054	63.530994356976279	0	2
434.79538984202117	60.177916667514666	0	2
436.71752314875766	38.207832438636579	0	2
423.93174634812584	40.938270619733245	0	2
425.90392563953839	39.283415703693521	0	2
430.59421037988687	39.693762447182642	0	2
432.24906529592658	41.66594173859518	0	2
430.32543229498356	63.653167550691698	0	2
447.33029501984828	66.651583652329009	0	2
452.89298210427552	74.499524687555819	0	2
451.07314910310618	75.789437734288953	0	2
421.34132561653746	70.546915067945264	0	2
447.80089744786187	46.891515314845584	0	2
442.79185670526579	54.035487106095289	0	2
435.38944284172317	53.387859810308171	0	2
422.00811334718281	62.925496431829771	0	2
432.11822009780047	63.969284411013362	0	2
430.66841587667096	72.191532732309938	0	2
446.88048831545348	66.572270594240649	0	2
445.43068409432396	74.794518915537225	0	2
452.76745600239519	31.89800634225935	0	2
454.79427566205788	31.898006342259347	0	2
458.07395159907037	28.818176284905181	0	2
457.54708068676405	28.25711745337194	0	2
449.43119601237254	28.25711745337194	0	2
445.44862923876258	23.668438091687257	0	2
451.72553605934723	23.668438091687257	0	2
458.66532926008813	16.980817197951776	0	2
457.94926128125314	16.237748209758497	0	2
438.63965645549416	16.237748209758493	0	2
426.2549815576312	35.270828198698737	0	2
424.60012664159143	33.298648907286207	0	2
430.94526629797969	35.681174942187859	0	2
432.91744558939217	34.026320026148127	0	2
434.8410785903352	12.039094214051609	0	2
452.10826873262675	12.039094214051616	0	2
458.94922676015625	5.2763315125197607	0	2
457.38103216133129	3.6900044590741814	0	2
427.19054737317981	3.6900044590741814	0	2
449.14042179494299	31.580681966886551	0	2
445.44801731933478	23.675432362752105	0	2
438.04560345579216	23.027805066964987	0	2
426.52375964253446	11.311423095189681	0	2
436.66152303477969	12.039094214051612	0	2
436.66152303477969	3.6900044590741885	0	2
451.65152303477964	12.039094214051616	0	2
451.65152303477964	3.6900044590741956	0	2
460.80000000000001	0	0	20
158.15000000000001	0	0	2
453.79941258802546	80.017080268921504	0	20
155.74734613888072	27.462459298025031	0	2
0	0	0	2
512	0	0	1
463.9857777777778	0	0	20
504.22156954225051	88.90786696546833	0	1
456.93679124295505	80.570284774484421	0	20
468.50121817263465	5.7801216611184572	0	1
468.513214264076	4.5429746953864898	0	1
468.84814936769118	7.1269912305129637	0	1
497.78732842175214	7.688265988995596	0	1
500.7124611553628	4.855197188522804	0	1
497.84281541018993	1.9659388694464117	0	1
468.89819391193038	1.9659388694464131	0	1
468.52521035551734	3.3058277296545229	0	1
484.63517172099256	1.9659388694464126	0	1
484.58216815987402	7.4321521882943262	0	1
463.95032100239735	5.735993533978716	0	1
463.97431318528004	3.2616996025147817	0	1
468.30104184189287	14.863897384524343	0	1
468.33702560497755	13.627215659170583	0	1
468.62179020895888	16.217241160543125	0	1
497.54464397710473	17.339579605026177	0	1
500.52416367636175	14.563765724523371	0	1
497.71108407603106	11.619404418680627	0	1
468.7719050219701	11.058129660197997	0	1
468.37300936806224	12.390533933816824	0	1
484.50592381415288	11.363290617979359	0	1
484.34693306326881	16.827448317549798	0	1
463.75185607796323	14.731529597889027	0	1
463.8238236041326	12.258166147181509	0	1
467.9247566414233	23.942083404012759	0	1
467.98471454412959	22.706331984457538	0	1
468.21920156015562	25.301392449409363	0	1
497.11485333994204	26.984372514304145	0	1
500.14763952934004	24.266857423849313	0	1
497.39218395804261	21.268500385111793	0	1
468.46933018989682	20.146161940628744	0	1
468.04467244683599	21.47058056490232	0	1
484.19447304420675	20.756369097635414	0	1
483.92955489347628	26.216416331685238	0	1
463.3789930465191	23.72152573599298	0	1
463.49890885193173	21.250022896882538	0	1
467.37250407670103	33.011265785092377	0	1
467.45641357131393	31.776909386906063	0	1
467.64053481840762	34.376028919326494	0	1
496.49811813694589	36.619017704659441	0	1
499.58303030963089	33.960823350539883	0	1
496.88623498151725	30.909598138366036	0	1
467.99058320173077	29.226618073471254	0	1
467.54032306592671	30.542552988719748	0	1
483.70093653505148	30.141641955747129	0	1
483.3301906093568	35.595525423811182	0	1
462.83187212660215	32.70260117840693	0	1
462.99969111582789	30.233888382034294	0	1
466.64449182733011	42.06803397917205	0	1
466.7523213589202	40.835536793314517	0	1
466.88600759661063	43.437737970643617	0	1
495.69467029700337	46.239891980064087	0	1
498.83054834367078	43.642018000464198	0	1
496.19342741317303	40.539072055870356	0	1
467.33584409463469	38.296083270537416	0	1
466.86015089051034	39.603039607456992	0	1
483.02549988558388	39.515579775022104	0	1
482.54906560730524	44.961248494575536	0	1
462.11069906801481	41.671378509956043	0	1
462.32635813119504	39.206384138240978	0	1
465.74099366894399	51.108982106128671	0	1
465.87270268723449	49.878807624386077	0	1
465.95590364159494	52.483111865183275	0	1
494.70481196398845	55.843377323168021	0	1
497.89047660915304	53.306800672246283	0	1
495.31402178960269	50.153300886301025	0	1
466.50535908920995	47.351146876880556	0	1
466.004411705525	48.648633142643497	0	1
482.16841709990456	48.874657400812474	0	1
481.58647363648936	54.310063478561389	0	1
461.21574507445052	50.624484940282059	0	1
461.47916311103143	48.164135976796892	0	1
464.66234937024979	60.130710235119352	0	1
464.81788834486531	58.903321075803845	0	1
464.85057272741955	61.508749007752407	0	1
493.52891538313793	65.425862255887466	0	1
496.76316862861074	62.951536836383895	0	1
494.24834881929621	59.748669111388025	0	1
465.49944049690276	56.388403653403287	0	1
464.97342731948083	57.675931916488338	0	1
481.13001049179712	58.215355266781394	0	1
480.44277668838203	63.638454668791766	0	1
460.14734670150534	59.558553572211736	0	1
460.45842465073645	57.103775253580721	0	1
463.40896456525479	69.129825663156424	0	1
463.58827500434813	67.905683397134283	0	1
463.57043052383659	70.511255225343206	0	1
492.16742276106521	74.983743197534139	0	1
495.44904833647195	72.572599502046529	0	1
492.99680925827494	69.32156830556373	0	1
464.31846660255661	65.404455057428677	0	1
463.76758544344142	66.681541131112127	0	1
479.91067056351903	67.53416071846803	0	1
479.11840486063187	72.942914038843284	0	1
458.90590573011309	68.470224667909221	0	1
459.26452660829972	66.021940135864938	0	1
461.9813106007245	78.102944190964266	0	1
462.18432507297274	76.882509168077974	0	1
462.11595843997475	79.487245043542757	0	1
490.62084609946459	84.513425819974586	0	1
493.94860991963486	82.166370581038251	0	1
491.55987375938349	78.868398492944081	0	1
462.96288152215482	74.395910520753148	0	1
462.38733954522098	75.662074145191696	0	1
478.51085585895009	76.827569334253212	0	1
477.6138561953203	82.219942562071338	0	1
457.49188901545182	77.356146912336101	0	1
457.89791795994824	74.915276866563516	0	1
511.90372886963274	9.9283618671740772	0	1
463.89853474008055	8.9973021542968645	0	1
511.61495168216578	19.852990083490155	0	1
463.63683843552712	17.99122079121619	0	1
511.13377703488931	29.770152402163621	0	1
463.20078727739525	26.978373665782946	0	1
510.46038587790952	39.676119384028638	0	1
462.59054524669227	35.955381077348619	0	1
509.5950314461009	49.567165800027695	0	1
461.8063418304888	44.918867140558433	0	1
508.53803916387483	59.43957203211788	0	1
460.84847193561814	53.865461054883717	0	1
507.2898065228008	69.289625472067115	0	1
459.7172957777737	62.791798372242155	0	1
505.85080293212621	79.113621917614324	0	1
458.41323874604683	71.694522262229157	0	1
462.92385185185185	0	0	20
455.8909983579785	80.38588327263011	0	20
461.86192592592596	0	0	20
454.84520547300201	80.201481770775814	0	20
[NumSegments] = 173
0	1	1.2641975308641975	0	0	2
2	0	1.2641975308641975	0	0	2
5	4	1.2641975308641975	0	0	2
6	23	1.2641975308641975	0	0	2
7	24	1.2641975308641975	0	0	2
9	7	1.2641975308641975	0	0	2
12	11	1.2641975308641975	0	0	2
13	25	1.2641975308641975	0	0	2
16	15	1.2641975308641975	0	0	2
18	17	1.2641975308641975	0	0	2
19	29	1.2641975308641975	0	0	2
22	28	1.2641975308641975	0	0	2
14	26	1.2641975308641975	0	0	2
1	6	1.2641975308641975	0	0	2
23	5	1.2641975308641975	0	0	2
23	0	1.2641975308641975	0	0	2
8	13	1.2641975308641975	0	0	2
24	8	1.2641975308641975	0	0	2
25	12	1.2641975308641975	0	0	2
25	24	1.2641975308641975	0	0	2
17	14	1.2641975308641975	0	0	2
26	22	1.2641975308641975	0	0	2
26	18	1.2641975308641975	0	0	2
27	18	1.2641975308641975	0	0	2
28	30	1.2641975308641975	0	0	2
27	28	1.2641975308641975	0	0	2
29	27	1.2641975308641975	0	0	2
30	21	1.2641975308641975	0	0	2
30	29	1.2641975308641975	0	0	2
31	1	1.2641975308641975	0	0	2
32	31	1.2641975308641975	0	0	2
35	34	1.2641975308641975	0	0	2
6	50	1.2641975308641975	0	0	2
36	51	1.2641975308641975	0	0	2
37	36	1.2641975308641975	0	0	2
40	39	1.2641975308641975	0	0	2
13	52	1.2641975308641975	0	0	2
43	41	1.2641975308641975	0	0	2
45	44	1.2641975308641975	0	0	2
46	56	1.2641975308641975	0	0	2
49	55	1.2641975308641975	0	0	2
42	53	1.2641975308641975	0	0	2
50	35	1.2641975308641975	0	0	2
50	31	1.2641975308641975	0	0	2
51	8	1.2641975308641975	0	0	2
52	40	1.2641975308641975	0	0	2
52	51	1.2641975308641975	0	0	2
44	42	1.2641975308641975	0	0	2
53	49	1.2641975308641975	0	0	2
53	45	1.2641975308641975	0	0	2
54	45	1.2641975308641975	0	0	2
55	57	1.2641975308641975	0	0	2
54	55	1.2641975308641975	0	0	2
56	54	1.2641975308641975	0	0	2
57	48	1.2641975308641975	0	0	2
57	56	1.2641975308641975	0	0	2
58	59	-1	4	0	2
61	60	-1	4	0	2
59	62	-1	2	0	2
62	61	-1	2	0	2
63	64	-1	10	0	1
66	65	-1	10	0	1
67	68	1.2641975308641975	0	0	1
69	67	1.2641975308641975	0	0	1
70	76	1.2641975308641975	0	0	1
73	75	1.2641975308641975	0	0	1
74	73	1.2641975308641975	0	0	1
68	74	1.2641975308641975	0	0	1
75	72	1.2641975308641975	0	0	1
76	69	1.2641975308641975	0	0	1
75	76	1.2641975308641975	0	0	1
67	77	1.2641975308641975	0	0	1
78	74	1.2641975308641975	0	0	1
79	80	1.2641975308641975	0	0	1
81	79	1.2641975308641975	0	0	1
82	88	1.2641975308641975	0	0	1
85	87	1.2641975308641975	0	0	1
86	85	1.2641975308641975	0	0	1
80	86	1.2641975308641975	0	0	1
87	84	1.2641975308641975	0	0	1
88	81	1.2641975308641975	0	0	1
87	88	1.2641975308641975	0	0	1
79	89	1.2641975308641975	0	0	1
90	86	1.2641975308641975	0	0	1
91	92	1.2641975308641975	0	0	1
93	91	1.2641975308641975	0	0	1
94	100	1.2641975308641975	0	0	1
97	99	1.2641975308641975	0	0	1
98	97	1.2641975308641975	0	0	1
92	98	1.2641975308641975	0	0	1
99	96	1.2641975308641975	0	0	1
100	93	1.2641975308641975	0	0	1
99	100	1.2641975308641975	0	0	1
91	101	1.2641975308641975	0	0	1
102	98	1.2641975308641975	0	0	1
103	104	1.2641975308641975	0	0	1
105	103	1.2641975308641975	0	0	1
106	112	1.2641975308641975	0	0	1
109	111	1.2641975308641975	0	0	1
110	109	1.2641975308641975	0	0	1
104	110	1.2641975308641975	0	0	1
111	108	1.2641975308641975	0	0	1
112	105	1.2641975308641975	0	0	1
111	112	1.2641975308641975	0	0	1
103	113	1.2641975308641975	0	0	1
114	110	1.2641975308641975	0	0	1
115	116	1.2641975308641975	0	0	1
117	115	1.2641975308641975	0	0	1
118	124	1.2641975308641975	0	0	1
121	123	1.2641975308641975	0	0	1
122	121	1.2641975308641975	0	0	1
116	122	1.2641975308641975	0	0	1
123	120	1.2641975308641975	0	0	1
124	117	1.2641975308641975	0	0	1
123	124	1.2641975308641975	0	0	1
115	125	1.2641975308641975	0	0	1
126	122	1.2641975308641975	0	0	1
127	128	1.2641975308641975	0	0	1
129	127	1.2641975308641975	0	0	1
130	136	1.2641975308641975	0	0	1
133	135	1.2641975308641975	0	0	1
134	133	1.2641975308641975	0	0	1
128	134	1.2641975308641975	0	0	1
135	132	1.2641975308641975	0	0	1
136	129	1.2641975308641975	0	0	1
135	136	1.2641975308641975	0	0	1
127	137	1.2641975308641975	0	0	1
138	134	1.2641975308641975	0	0	1
139	140	1.2641975308641975	0	0	1
141	139	1.2641975308641975	0	0	1
142	148	1.2641975308641975	0	0	1
145	147	1.2641975308641975	0	0	1
146	145	1.2641975308641975	0	0	1
140	146	1.2641975308641975	0	0	1
147	144	1.2641975308641975	0	0	1
148	141	1.2641975308641975	0	0	1
147	148	1.2641975308641975	0	0	1
139	149	1.2641975308641975	0	0	1
150	146	1.2641975308641975	0	0	1
151	152	1.2641975308641975	0	0	1
153	151	1.2641975308641975	0	0	1
154	160	1.2641975308641975	0	0	1
157	159	1.2641975308641975	0	0	1
158	157	1.2641975308641975	0	0	1
152	158	1.2641975308641975	0	0	1
159	156	1.2641975308641975	0	0	1
160	153	1.2641975308641975	0	0	1
159	160	1.2641975308641975	0	0	1
151	161	1.2641975308641975	0	0	1
162	158	1.2641975308641975	0	0	1