[Format]      =  4.0
[Frequency]   =  0
[Precision]   =  1e-008
[MinAngle]    =  15
[DoSmartMesh] =  1
[Depth]       =  300
[LengthUnits] =  millimeters
[ProblemType] =  planar
[Coordinates] =  cartesian
[ACSolver]    =  0
[PrevType]    =  0
[PrevSoln]    =  ""
[Comment]     =  "Add comments here."
[PointProps]   = 0
[BdryProps]   = 11
  <BeginBdry>
    <BdryName> = "A=0"
    <BdryType> = 0
    <A_0> = 0
    <A_1> = 0
    <A_2> = 0
    <Phi> = 0
    <c0> = 0
    <c0i> = 0
    <c1> = 0
    <c1i> = 0
    <Mu_ssd> = 0
    <Sigma_ssd> = 0
    <innerangle> = 0
    <outerangle> = 0
  <EndBdry>
  <BeginBdry>
    <BdryName> = "APr1"
    <BdryType> = 5
    <A_0> = 0
    <A_1> = 0
    <A_2> = 0
    <Phi> = 0
    <c0> = 0
    <c0i> = 0
    <c1> = 0
    <c1i> = 0
    <Mu_ssd> = 0
    <Sigma_ssd> = 0
    <innerangle> = 0
    <outerangle> = 0
  <EndBdry>
  <BeginBdry>
    <BdryName> = "APr2"
    <BdryType> = 5
    <A_0> = 0
    <A_1> = 0
    <A_2> = 0
    <Phi> = 0
    <c0> = 0
    <c0i> = 0
    <c1> = 0
    <c1i> = 0
    <Mu_ssd> = 0
    <Sigma_ssd> = 0
    <innerangle> = 0
    <outerangle> = 0
  <EndBdry>
  <BeginBdry>
    <BdryName> = "APr3"
    <BdryType> = 5
    <A_0> = 0
    <A_1> = 0
    <A_2> = 0
    <Phi> = 0
    <c0> = 0
    <c0i> = 0
    <c1> = 0
    <c1i> = 0
    <Mu_ssd> = 0
    <Sigma_ssd> = 0
    <innerangle> = 0
    <outerangle> = 0
  <EndBdry>
  <BeginBdry>
    <BdryName> = "APg1"
    <BdryType> = 5
    <A_0> = 0
    <A_1> = 0
    <A_2> = 0
    <Phi> = 0
    <c0> = 0
    <c0i> = 0
    <c1> = 0
    <c1i> = 0
    <Mu_ssd> = 0
    <Sigma_ssd> = 0
    <innerangle> = 0
    <outerangle> = 0
  <EndBdry>
  <BeginBdry>
    <BdryName> = "APg2"
    <BdryType> = 5
    <A_0> = 0
    <A_1> = 0
    <A_2> = 0
    <Phi> = 0
    <c0> = 0
    <c0i> = 0
    <c1> = 0
    <c1i> = 0
    <Mu_ssd> = 0
    <Sigma_ssd> = 0
    <innerangle> = 0
    <outerangle> = 0
  <EndBdry>
  <BeginBdry>
    <BdryName> = "APg3"
    <BdryType> = 5
    <A_0> = 0
    <A_1> = 0
    <A_2> = 0
    <Phi> = 0
    <c0> = 0
    <c0i> = 0
    <c1> = 0
    <c1i> = 0
    <Mu_ssd> = 0
    <Sigma_ssd> = 0
    <innerangle> = 0
    <outerangle> = 0
  <EndBdry>
  <BeginBdry>
    <BdryName> = "APs1"
    <BdryType> = 5
    <A_0> = 0
    <A_1> = 0
    <A_2> = 0
    <Phi> = 0
    <c0> = 0
    <c0i> = 0
    <c1> = 0
    <c1i> = 0
    <Mu_ssd> = 0
    <Sigma_ssd> = 0
    <innerangle> = 0
    <outerangle> = 0
  <EndBdry>
  <BeginBdry>
    <BdryName> = "APs2"
    <BdryType> = 5
    <A_0> = 0
    <A_1> = 0
    <A_2> = 0
    <Phi> = 0
    <c0> = 0
    <c0i> = 0
    <c1> = 0
    <c1i> = 0
    <Mu_ssd> = 0
    <Sigma_ssd> = 0
    <innerangle> = 0
    <outerangle> = 0
  <EndBdry>
  <BeginBdry>
    <BdryName> = "APs3"
    <BdryType> = 5
    <A_0> = 0
    <A_1> = 0
    <A_2> = 0
    <Phi> = 0
    <c0> = 0
    <c0i> = 0
    <c1> = 0
    <c1i> = 0
    <Mu_ssd> = 0
    <Sigma_ssd> = 0
    <innerangle> = 0
    <outerangle> = 0
  <EndBdry>
  <BeginBdry>
    <BdryName> = "AGap"
    <BdryType> = 7
    <A_0> = 0
    <A_1> = 0
    <A_2> = 0
    <Phi> = 0
    <c0> = 0
    <c0i> = 0
    <c1> = 0
    <c1i> = 0
    <Mu_ssd> = 0
    <Sigma_ssd> = 0
    <innerangle> = 2.5
    <outerangle> = 0
  <EndBdry>
[BlockProps]  = 7
  <BeginBlock>
    <BlockName> = "M600-50A"
    <Mu_x> = 1
    <Mu_y> = 1
    <H_c> = 0
    <H_cAngle> = 0
    <J_re> = 0
    <J_im> = 0
    <Sigma> = 0
    <d_lam> = 0
    <Phi_h> = 0
    <Phi_hx> = 0
    <Phi_hy> = 0
    <LamType> = 0
    <LamFill> = 1
    <NStrands> = 0
    <WireD> = 0
    <BHPoints> = 208
      0	0
      0.0061294119999999999	8.2635015680000006
      0.012398954	15.54584049
      0.018188152999999999	21.42337126
      0.023698273999999998	26.396066560000001
      0.028962854999999999	30.670770340000001
      0.034031080999999998	34.409892589999998
      0.038937833999999998	37.72521158
      0.043710287	40.697869570000002
      0.048369641999999997	43.388214720000001
      0.052932743999999997	45.842257519999997
      0.057413198999999998	48.095830579999998
      0.061822165999999998	50.17736026
      0.066168929000000001	52.109762629999999
      0.070461307000000001	53.911772880000001
      0.074705967999999998	55.598898519999999
      0.078908651999999996	57.184116670000002
      0.083074354000000003	58.67839326
      0.087207454000000004	60.091076020000003
      0.091311829999999997	61.430196219999999
      0.095390935999999996	62.702703470000003
      0.099447875000000005	63.914650479999999
      0.10348545000000001	65.071340269999993
      0.107506212	66.177444339999994
      0.111512495	67.237098649999993
      0.115506446	68.253982050000005
      0.119490053	69.231381029999994
      0.123465163	70.172243330000001
      0.127433505	71.079222909999999
      0.131396704	71.954717669999994
      0.13535628999999999	72.800901379999999
      0.139313718	73.619750830000001
      0.14327037200000001	74.413069070000006
      0.147227575	75.182505329999998
      0.151186599	75.929572239999999
      0.15514867099999999	76.655660710000006
      0.15911497799999999	77.362052919999996
      0.16308667299999999	78.049933670000001
      0.167064883	78.720400249999997
      0.171050709	79.374471249999999
      0.17504523399999999	80.013094219999999
      0.17904952399999999	80.637152520000001
      0.183064634	81.247471390000001
      0.18709161099999999	81.844823349999999
      0.19113149500000001	82.429933079999998
      0.19518532499999999	83.003481679999993
      0.19925414	83.566110629999997
      0.203338983	84.118425299999998
      0.20744090200000001	84.6609981
      0.21156095499999999	85.194371430000004
      0.21570021	85.719060249999998
      0.21985974999999999	86.23555451
      0.224040674	86.744321339999999
      0.228244101	87.245807119999995
      0.232471172	87.740439260000002
      0.23672305199999999	88.228628009999994
      0.241000933	88.710768049999999
      0.245306038	89.187239969999993
      0.249639624	89.658411700000002
      0.25400298399999999	90.124639849999994
      0.258397449	90.586270990000003
      0.26282439699999999	91.043642790000007
      0.267285249	91.497085290000001
      0.27178147899999999	91.946921900000007
      0.27631461499999999	92.393470609999994
      0.28088624499999998	92.837044969999994
      0.28549801899999999	93.277955219999996
      0.29015165799999998	93.716509279999997
      0.294848956	94.153013889999997
      0.299591787	94.587775629999996
      0.30438211199999998	95.021102040000002
      0.30922198299999998	95.45330276
      0.31411355600000002	95.884690719999995
      0.31905909100000002	96.315583349999997
      0.324060968	96.746303900000001
      0.32912169099999999	97.177182860000002
      0.33424390300000001	97.608559369999995
      0.33943039400000002	98.040782919999998
      0.34468411100000002	98.474215020000003
      0.35000818	98.909231149999997
      0.35540591100000002	99.346222819999994
      0.36088082199999999	99.785599880000007
      0.366436651	100.2277931
      0.37207738099999998	100.67325700000001
      0.37780725700000001	101.1224732
      0.38363081700000001	101.57595360000001
      0.389552911	102.03424510000001
      0.39557873700000001	102.4979336
      0.401713873	102.9676498
      0.40796431599999999	103.44407510000001
      0.41433652900000001	103.9279489
      0.420837509	104.4200783
      0.42747497499999998	104.9213567
      0.43425898400000001	105.43288579999999
      0.44146202099999998	105.9749185
      0.44856258700000001	106.5079061
      0.45587690400000003	107.05707719999999
      0.46342101400000002	107.62377619999999
      0.47120716099999999	108.2090887
      0.47924850299999999	108.8142005
      0.48755929799999997	109.4404164
      0.496155022	110.0891769
      0.50505251799999995	110.7620768
      0.51427015700000001	111.4608879
      0.52382802100000003	112.1875854
      0.53374812500000002	112.944379
      0.54405466000000002	113.73375040000001
      0.55477427700000004	114.558498
      0.56593642099999997	115.4217907
      0.57757370900000005	116.3272333
      0.58972237000000005	117.2789456
      0.60242275199999995	118.28165920000001
      0.61571989900000001	119.3408371
      0.62966422099999997	120.4628209
      0.64431222899999996	121.65501310000001
      0.65972736300000001	122.92610569999999
      0.67598086099999999	124.28636400000001
      0.69315263800000004	125.74798269999999
      0.71133206000000004	127.3255305
      0.73061842099999996	129.03650049999999
      0.75112078999999998	130.90198509999999
      0.772956635	132.94748089999999
      0.79624826999999998	135.20380520000001
      0.82111564500000001	137.70804709999999
      0.84766332799999999	140.50436830000001
      0.87595905799999996	143.6442744
      0.90600166900000001	147.18571779999999
      0.93767904199999996	151.19014369999999
      0.97072398500000001	155.71669249999999
      1.0046871660000001	160.81373919999999
      1.0389539999999999	166.5100477
      1.0728218	172.80985770000001
      1.1056189649999999	179.69557180000001
      1.1368151129999999	187.13741469999999
      1.166076154	195.10516089999999
      1.1932571599999999	203.57694960000001
      1.2183581130000001	212.54344710000001
      1.2414717689999999	222.00841339999999
      1.262740478	231.98749659999999
      1.2823264919999999	242.50660869999999
      1.3003940249999999	253.6005657
      1.317099609	265.31223169999998
      1.332587655	277.69219570000001
      1.346989049	290.79894300000001
      1.360421377	304.69948410000001
      1.3729899480000001	319.47042970000001
      1.3847891750000001	335.19953839999999
      1.395904035	351.98780690000001
      1.406411522	369.95222330000001
      1.416382027	389.22936779999998
      1.4258806550000001	409.98013700000001
      1.4349684949999999	432.3959911
      1.443703884	456.70731569999998
      1.452143746	483.19477810000001
      1.460345062	512.205018
      1.468366627	544.17275689999997
      1.476271267	579.65265699999998
      1.484128812	619.36640990000001
      1.4920203320000001	664.27439319999996
      1.5000444559999999	715.68841520000001
      1.5083273020000001	775.45608200000004
      1.517038858	846.27605440000002
      1.52642144	932.26565330000005
      1.5368418420000001	1040.044543
      1.5488919160000001	1180.938134
      1.5635876129999999	1375.704356
      1.5827254589999999	1664.518061
      1.609038255	2120.3213700000001
      1.6429877180000001	2803.4219309999999
      1.6763000130000001	3588.174364
      1.7038913950000001	4346.5592559999996
      1.7268422349999999	5076.0393119999999
      1.746445904	5791.6494789999997
      1.7635818270000001	6506.5344940000004
      1.778835427	7231.1495919999998
      1.792609184	7974.1327339999998
      1.805191346	8743.1111569999994
      1.8167966790000001	9545.295204
      1.8275911469999999	10387.927960000001
      1.837707435	11278.663500000001
      1.8472551399999999	12225.930109999999
      1.8563277979999999	13239.325269999999
      1.865008022	14330.08987
      1.873371527	15511.71947
      1.8814906259999999	16800.793989999998
      1.88943763	18218.15107
      1.8972886259999999	19790.607090000001
      1.905128269	21553.57647
      1.913056538	23555.22162
      1.921199232	25863.341659999998
      1.92972568	28577.465530000001
      1.938881257	31851.611560000001
      1.949053186	35941.14198
      1.960921235	41311.621829999996
      1.975868577	48939.738250000002
      1.9972472800000001	61282.289870000001
      2.0280781640000001	81252.957920000001
      2.0737002590000002	113566.1776
      2.1433819129999998	165850.06529999999
      2.250195926	248560.18210000001
      2.3541325240000002	331270.29889999999
      2.4580691219999999	413980.41570000001
      2.5620057200000002	496690.53249999997
      2.665942319	579400.64930000005
      2.7698789170000002	662110.76610000001
      2.873815515	744820.88289999997
      2.9777521130000002	827530.99970000004
      3.081688711	910241.1165
  <EndBlock>
  <BeginBlock>
    <BlockName> = "ShaftAir"
    <Mu_x> = 1
    <Mu_y> = 1
    <H_c> = 0
    <H_cAngle> = 0
    <J_re> = 0
    <J_im> = 0
    <Sigma> = 0
    <d_lam> = 0
    <Phi_h> = 0
    <Phi_hx> = 0
    <Phi_hy> = 0
    <LamType> = 0
    <LamFill> = 1
    <NStrands> = 0
    <WireD> = 0
    <BHPoints> = 3
      -100	-7.9577471545947675e-011
      0	0
      100	7.9577471545947675e-011
  <EndBlock>
  <BeginBlock>
    <BlockName> = "Copper"
    <Mu_x> = 1
    <Mu_y> = 1
    <H_c> = 0
    <H_cAngle> = 0
    <J_re> = 0
    <J_im> = 0
    <Sigma> = 58
    <d_lam> = 0
    <Phi_h> = 0
    <Phi_hx> = 0
    <Phi_hy> = 0
    <LamType> = 0
    <LamFill> = 1
    <NStrands> = 0
    <WireD> = 0
    <BHPoints> = 0
  <EndBlock>
  <BeginBlock>
    <BlockName> = "Aluminium"
    <Mu_x> = 1
    <Mu_y> = 1
    <H_c> = 0
    <H_cAngle> = 0
    <J_re> = 0
    <J_im> = 0
    <Sigma> = 29
    <d_lam> = 0
    <Phi_h> = 0
    <Phi_hx> = 0
    <Phi_hy> = 0
    <LamType> = 0
    <LamFill> = 1
    <NStrands> = 0
    <WireD> = 0
    <BHPoints> = 0
  <EndBlock>
  <BeginBlock>
    <BlockName> = "Air"
    <Mu_x> = 1
    <Mu_y> = 1
    <H_c> = 0
    <H_cAngle> = 0
    <J_re> = 0
    <J_im> = 0
    <Sigma> = 0
    <d_lam> = 0
    <Phi_h> = 0
    <Phi_hx> = 0
    <Phi_hy> = 0
    <LamType> = 0
    <LamFill> = 1
    <NStrands> = 0
    <WireD> = 0
    <BHPoints> = 0
  <EndBlock>
  <BeginBlock>
    <BlockName> = "DW235"
    <Mu_x> = 1
    <Mu_y> = 1
    <H_c> = 0
    <H_cAngle> = 0
    <J_re> = 0
    <J_im> = 0
    <Sigma> = 0
    <d_lam> = 0
    <Phi_h> = 0
    <Phi_hx> = 0
    <Phi_hy> = 0
    <LamType> = 0
    <LamFill> = 1
    <NStrands> = 0
    <WireD> = 0
    <BHPoints> = 0
  <EndBlock>
  <BeginBlock>
    <BlockName> = "Air"
    <Mu_x> = 1
    <Mu_y> = 1
    <H_c> = 0
    <H_cAngle> = 0
    <J_re> = 0
    <J_im> = 0
    <Sigma> = 0
    <d_lam> = 0
    <Phi_h> = 0
    <Phi_hx> = 0
    <Phi_hy> = 0
    <LamType> = 0
    <LamFill> = 1
    <NStrands> = 0
    <WireD> = 0
    <BHPoints> = 0
  <EndBlock>
[CircuitProps]  = 6
  <BeginCircuit>
    <CircuitName> = "fase1"
    <TotalAmps_re> = 238.89121005267771
    <TotalAmps_im> = 0
    <CircuitType> = 1
  <EndCircuit>
  <BeginCircuit>
    <CircuitName> = "fase2"
    <TotalAmps_re> = -62.782830364794606
    <TotalAmps_im> = -0
    <CircuitType> = 1
  <EndCircuit>
  <BeginCircuit>
    <CircuitName> = "fase3"
    <TotalAmps_re> = -176.10837968788297
    <TotalAmps_im> = -0
    <CircuitType> = 1
  <EndCircuit>
  <BeginCircuit>
    <CircuitName> = "fase1n"
    <TotalAmps_re> = -238.89121005267771
    <TotalAmps_im> = -0
    <CircuitType> = 1
  <EndCircuit>
  <BeginCircuit>
    <CircuitName> = "fase2n"
    <TotalAmps_re> = 62.782830364794606
    <TotalAmps_im> = 0
    <CircuitType> = 1
  <EndCircuit>
  <BeginCircuit>
    <CircuitName> = "fase3n"
    <TotalAmps_re> = 176.10837968788297
    <TotalAmps_im> = 0
    <CircuitType> = 1
  <EndCircuit>
[NumPoints] = 131
1305.3776053113261	102.73544558863449	0	2
1288.1500150611894	101.37960483147356	0	2
1307.9639900413461	115.0015330149586	0	2
1313.0820995911913	141.11327313770798	0	2
1312.974461541048	141.17829921006751	0	2
1278.0335870146462	100.58342467724218	0	2
1262.215272846413	99.338496353114166	0	2
1300.0802012043118	145.83152525481876	0	2
1309.9811114789668	167.47251622513929	0	2
1309.8708964924608	167.54560136651259	0	2
1250.689568717966	98.431403765849851	0	2
1236.2381529775471	97.294052681046722	0	2
1296.1844200744538	174.87339207050434	0	2
1306.3972479529079	193.4522852372578	0	2
1306.2848467836932	193.52835336821909	0	2
1309.8509861781338	91.024973764562418	0	2
1318.9908594037765	66.035361222119974	0	2
1318.8947188754885	65.954297427823576	0	2
1306.8871332073181	59.341253599402357	0	2
1320.051543692256	39.515542741319102	0	2
1319.9541186701181	39.426115976860459	0	2
1307.5824645069281	30.047505919469728	0	2
1320.5759347405628	13.294988023218579	0	2
1320.4768170936338	13.202273000401249	0	2
1327.5	0	0	20
428.56999999999999	0	0	2
1311.1562721400453	207.66675234090647	0	20
423.29359212885817	67.043118682291748	0	2
0	0	0	2
1500	0	0	1
1329.5	0	0	20
1481.5325108927066	234.65169756034629	0	1
1313.1316488212356	207.97962127098694	0	20
1339.5923414614483	22.757592550664352	0	1
1339.6606812041766	17.537118967321323	0	1
1341.373574809779	26.711783957821684	0	1
1453.2557746318685	29.641522467351017	0	1
1463.3547809498466	19.96713075574424	0	1
1463.368368940012	19.156541308690269	0	1
1463.3760043641657	18.345873938278704	0	1
1453.5337047751696	8.4104362327415796	0	1
1341.6131525751191	8.4104362327415778	0	1
1339.7290209469049	12.316645383978294	0	1
1401.6248695957815	8.4104362327415796	0	1
1401.3647273138445	28.282707572138271	0	1
1329.3075083778299	22.622956710501953	0	1
1329.4441878632865	12.182009543815894	0	1
1338.5375722992844	57.816233568139879	0	1
1338.7425446908235	52.599337836622411	0	1
1340.2146865993693	61.815697225943623	0	1
1451.9818555723805	67.67316634857157	0	1
1462.3306472648665	58.266450975727636	0	1
1462.3654493568217	57.456494989548418	0	1
1462.3943029623563	56.646305286701207	0	1
1452.8154555228462	46.456630839950918	0	1
1340.9332557007565	43.526892330421575	0	1
1338.9475170823625	47.382442105104921	0	1
1400.9244082048222	45.097815944738173	0	1
1400.1441596475365	64.956467822000945	0	1
1328.2597879265224	57.412418320332321	0	1
1328.6697327096006	46.978626857297357	0	1
1336.5654363465101	92.835250227113136	0	1
1336.9069009090213	87.625507747165813	0	1
1338.1372821879816	96.877245102949885	0	1
1449.7128206771949	105.65843042192689	0	1
1460.3043051992968	96.525838280686429	0	1
1460.360297541426	95.717070858756685	0	1
1460.4103495535217	94.907914087026285	0	1
1451.101519127059	84.470986392943033	0	1
1339.3343501540476	78.613517270315086	0	1
1337.2483654715327	82.415765267218504	0	1
1399.2638232022148	81.754287866372408	0	1
1397.9640031129675	101.58571015346638	0	1
1326.3017445646271	92.162532326460223	0	1
1326.9846736896498	81.743047366565605	0	1
1333.6772852065972	127.79064224280492	0	1
1334.155007917326	122.5916235116911	0	1
1335.142785324831	131.87239815528898	0	1
1446.4502250294888	143.57128148482741	0	1
1457.2771435067712	134.71907159766087	0	1
1457.3542877247201	133.91204702877275	0	1
1457.425503840228	133.10447774379222	0	1
1448.3930702342	122.42744975128136	0	1
1336.8175317449861	113.64626443230433	0	1
1334.6327306280548	117.39260478057729	0	1
1396.644252669972	118.35472948282083	0	1
1394.8257518805246	138.1453307135121	0	1
1323.4347202372576	126.84948273655279	0	1
1324.3901656587154	116.45144527432514	0	1
1329.8750982740703	162.65845293558849	0	1
1330.4887517257337	157.47372110104968	0	1
1331.233248288489	166.77717245310566	0	1
1442.1963046493481	181.38573596294373	0	1
1453.2512368527036	172.81997519233002	0	1
1453.3494800756787	172.01524657081126	0	1
1453.4418114866303	171.20981824022954	0	1
1444.6919650798507	160.3000074509477	0	1
1333.3845253751929	148.60112412140924	0	1
1331.102405177397	152.2889892665109	0	1
1393.0674919308865	154.87405667963236	0	1
1390.731556750844	174.61027336439994	0	1
1319.660679859677	161.44949684745075	0	1
1320.8879867630035	151.0800331783731	0	1
1325.1614813779299	197.41478564970106	0	1
1325.9106450031047	192.2478940679535	0	1
1326.4113504803547	201.56764600762864	0	1
1436.9539749613139	219.07587771805072	0	1
1448.2293443924161	210.80243660855274	0	1
1448.34861928942	210.00055545520345	0	1
1448.4620027164781	209.19782007936624	0	1
1440.0007402166098	198.06270353267121	0	1
1329.0376838557504	183.45414002283312	0	1
1326.6598086282795	187.08100248620596	0	1
1388.5359923181054	191.28724093412745	0	1
1385.6842236807577	210.95554685590167	0	1
1314.9822099706419	195.93886153779175	0	1
1316.4805372209914	185.60507837429668	0	1
1499.485987463336	39.26542246180972	0	1
1329.0444135550033	34.802252775317349	0	1
1497.9443021318607	78.503934364415741	0	1
1327.6779664562059	69.580653824993817	0	1
1495.3760005996919	117.68864359176742	0	1
1325.4015951981937	104.31136777016985	0	1
1491.78284305241	156.79269490148022	0	1
1322.2168598921194	138.97059191434528	0	1
1487.1672920607157	195.78928833007737	0	1
1318.1259431964809	173.53457255655857	0	1
1328.8333333333333	0	0	20
1312.4731899275055	207.87533162762676	0	20
1328.1666666666667	0	0	20
1311.8147310337756	207.77104198426665	0	20
[NumSegments] = 96
0	1	4.2857142857142856	0	0	2
5	6	4.2857142857142856	0	0	2
10	11	4.2857142857142856	0	0	2
24	25	-1	4	0	2
27	26	-1	4	0	2
25	28	-1	2	0	2
28	27	-1	2	0	2
29	30	-1	10	0	1
32	31	-1	10	0	1
33	34	4.2857142857142856	0	0	1
35	33	4.2857142857142856	0	0	1
36	44	4.2857142857142856	0	0	1
38	37	4.2857142857142856	0	0	1
39	38	4.2857142857142856	0	0	1
41	43	4.2857142857142856	0	0	1
42	41	4.2857142857142856	0	0	1
34	42	4.2857142857142856	0	0	1
43	40	4.2857142857142856	0	0	1
44	35	4.2857142857142856	0	0	1
43	44	4.2857142857142856	0	0	1
33	45	4.2857142857142856	0	0	1
46	42	4.2857142857142856	0	0	1
47	48	4.2857142857142856	0	0	1
49	47	4.2857142857142856	0	0	1
50	58	4.2857142857142856	0	0	1
52	51	4.2857142857142856	0	0	1
53	52	4.2857142857142856	0	0	1
55	57	4.2857142857142856	0	0	1
56	55	4.2857142857142856	0	0	1
48	56	4.2857142857142856	0	0	1
57	54	4.2857142857142856	0	0	1
58	49	4.2857142857142856	0	0	1
57	58	4.2857142857142856	0	0	1
47	59	4.2857142857142856	0	0	1
60	56	4.2857142857142856	0	0	1
61	62	4.2857142857142856	0	0	1
63	61	4.2857142857142856	0	0	1
64	72	4.2857142857142856	0	0	1
66	65	4.2857142857142856	0	0	1
67	66	4.2857142857142856	0	0	1
69	71	4.2857142857142856	0	0	1
70	69	4.2857142857142856	0	0	1
62	70	4.2857142857142856	0	0	1
71	68	4.2857142857142856	0	0	1
72	63	4.2857142857142856	0	0	1
71	72	4.2857142857142856	0	0	1
61	73	4.2857142857142856	0	0	1
74	70	4.2857142857142856	0	0	1
75	76	4.2857142857142856	0	0	1
77	75	4.2857142857142856	0	0	1
78	86	4.2857142857142856	0	0	1
80	79	4.2857142857142856	0	0	1
81	80	4.2857142857142856	0	0	1
83	85	4.2857142857142856	0	0	1
84	83	4.2857142857142856	0	0	1
76	84	4.2857142857142856	0	0	1
85	82	4.2857142857142856	0	0	1
86	77	4.2857142857142856	0	0	1
85	86	4.2857142857142856	0	0	1
75	87	4.2857142857142856	0	0	1
88	84	4.2857142857142856	0	0	1
89	90	4.2857142857142856	0	0	1
91	89	4.2857142857142856	0	0	1
92	100	4.2857142857142856	0	0	1
94	93	4.2857142857142856	0	0	1
95	94	4.2857142857142856	0	0	1
97	99	4.2857142857142856	0	0	1
98	97	4.2857142857142856	0	0	1
90	98	4.2857142857142856	0	0	1
99	96	4.2857142857142856	0	0	1
100	91	4.2857142857142856	0	0	1
99	100	4.2857142857142856	0	0	1
89	101	4.2857142857142856	0	0	1
102	98	4.2857142857142856	0	0	1
103	104	4.2857142857142856	0	0	1
105	103	4.2857142857142856	0	0	1
106	114	4.2857142857142856	0	0	1
108	107	4.2857142857142856	0	0	1
109	108	4.2857142857142856	0	0	1
111	113	4.2857142857142856	0	0	1
112	111	4.2857142857142856	0	0	1
104	112	4.2857142857142856	0	0	1
113	110	4.2857142857142856	0	0	1
114	105	4.2857142857142856	0	0	1
113	114	4.2857142857142856	0	0	1
103	115	4.2857142857142856	0	0	1
116	112	4.2857142857142856	0	0	1
117	118	4.2857142857142856	0	0	1
119	120	4.2857142857142856	0	0	1
121	122	4.2857142857142856	0	0	1
123	124	4.2857142857142856	0	0	1
125	126	4.2857142857142856	0	0	1
127	30	0.42857142857142855	7	0	20
128	32	0.42857142857142855	7	0	20
129	24	0.42857142857142855	5	0	20
130	26	0.42857142857142855	5	0	20
[NumArcSegments] = 64
2	0	32.81354837803633	2.7663865645542911	0	0	2	2.7663865645542911
2	3	34.447424592557894	1.3662716365489391	0	0	2	1.3662716365489391
3	4	105.45839637641549	10	0	0	2	10
4	1	72.907727408970288	1.5552507971141283	0	0	2	1.5552507971141283
7	5	60.954247987683061	1.2371848239860372	0	0	2	1.2371848239860372
7	8	63.739619552719397	2.7239292512012949	0	0	2	2.7239292512012949
8	9	98.331396707146169	10	0	0	2	10
9	6	78.883231727815371	0.93741826167909859	0	0	2	0.93741826167909859
12	10	70.518429832988204	0.79675500346816786	0	0	2	0.79675500346816786
12	13	74.441620163748269	3.5029770734055794	0	0	2	3.5029770734055794
13	14	94.976817583508094	10	0	0	2	10
14	11	81.099992085817121	0.67058795585689279	0	0	2	0.67058795585689279
0	15	32.813548378036359	2.7663865645541028	0	0	2	2.7663865645541028
16	15	34.447424592557958	1.3662716365489809	0	0	2	1.3662716365489809
17	16	105.45839637653616	10	0	0	2	10
1	17	72.907727408970004	1.5552507971140372	0	0	2	1.5552507971140372
5	18	60.954247987683203	1.237184823986138	0	0	2	1.237184823986138
19	18	63.739619552719276	2.7239292512018136	0	0	2	2.7239292512018136
20	19	98.331396707287098	10	0	0	2	10
6	20	78.883231727815257	0.93741826167911069	0	0	2	0.93741826167911069
10	21	70.518429832988218	0.79675500346819572	0	0	2	0.79675500346819572
22	21	74.441620163748283	3.5029770734077283	0	0	2	3.5029770734077283
23	22	94.976817583400404	10	0	0	2	10
11	23	81.099992085817163	0.67058795585688635	0	0	2	0.67058795585688635
24	26	9.0000000000000018	0.046243567000066439	0	0	2	0.046243567000066439
25	27	9.0000000000000018	0.14323992624912665	0	0	2	0.14323992624912665
29	117	1.5	4.2857142857142856	1	0	1	0.14000000000000001
30	46	0.52500000000000002	0.046174001649182554	0	0	1	0.046174001649182554
37	36	90.53963519306285	6.2369176925165712	0	0	1	6.2369176925165712
40	39	90.539635193062452	6.236917692516629	0	0	1	6.236917692516629
45	118	0.52499999999999991	0.046174001649182554	0	0	1	0.046174001649182554
46	45	0.44999999999999973	0.046174001649182554	0	0	1	0.046174001649182554
51	50	90.539635193062963	6.2369176925166858	0	0	1	6.2369176925166858
54	53	90.539635193062068	6.236917692516629	0	0	1	6.236917692516629
59	120	0.52499999999999991	0.046174001649182554	0	0	1	0.046174001649182554
60	59	0.44999999999999973	0.046174001649182554	0	0	1	0.046174001649182554
65	64	90.539635193063191	6.2369176925165517	0	0	1	6.2369176925165517
68	67	90.539635193061969	6.2369176925166219	0	0	1	6.2369176925166219
73	122	0.52499999999999969	0.046174001649182554	0	0	1	0.046174001649182554
74	73	0.45000000000000023	0.046174001649182554	0	0	1	0.046174001649182554
79	78	90.539635193063319	6.2369176925166814	0	0	1	6.2369176925166814
82	81	90.539635193063148	6.2369176925166192	0	0	1	6.2369176925166192
87	124	0.52499999999999913	0.046174001649182554	0	0	1	0.046174001649182554
88	87	0.44999999999999934	0.046174001649182554	0	0	1	0.046174001649182554
93	92	90.539635193062509	6.2369176925164336	0	0	1	6.2369176925164336
96	95	90.539635193062836	6.2369176925166281	0	0	1	6.2369176925166281
101	126	0.52500000000000069	0.046174001649182554	0	0	1	0.046174001649182554
102	101	0.45000000000000084	0.046174001649182554	0	0	1	0.046174001649182554
107	106	90.539635193062722	6.236917692516613	0	0	1	6.236917692516613
110	109	90.539635193062537	6.236917692516621	0	0	1	6.236917692516621
115	32	0.52500000000000235	0.046174001649182554	0	0	1	0.046174001649182554
116	115	0.4500000000000009	0.046174001649182554	0	0	1	0.046174001649182554
117	119	1.5000000000000011	4.2857142857142856	1	0	1	0.25
118	60	0.52500000000000047	0.046174001649182554	0	0	1	0.046174001649182554
119	121	1.5000000000000007	4.2857142857142856	1	0	1	0.25
120	74	0.52500000000000069	0.046174001649182554	0	0	1	0.046174001649182554
121	123	1.5000000000000002	4.2857142857142856	1	0	1	0.25
122	88	0.52500000000000024	0.046174001649182554	0	0	1	0.046174001649182554
123	125	1.5	4.2857142857142856	1	0	1	0.29999999999999999
124	102	0.52500000000000091	0.046174001649182554	0	0	1	0.046174001649182554
125	31	1.5000000000000013	4.2857142857142856	1	0	1	0.14000000000000001
126	116	0.52500000000000069	0.046174001649182554	0	0	1	0.046174001649182554
127	128	9	0.42857142857142855	11	0	20	0.027
129	130	9	0.42857142857142855	11	0	20	0.027
[NumHoles] = 0
[NumBlockLabels] = 34
1311.3401837245283	132.43103512091133	7	4.2857142857142856	0	0	2	1	0
1306.6440697252465	160.28321428215691	7	4.2857142857142856	0	0	2	1	0
1302.9555049370183	187.28467689199374	7	4.2857142857142856	0	0	2	1	0
1315.9121881524661	74.338210804835299	7	4.2857142857142856	0	0	2	1	0
1315.6309318565641	46.094304105860644	7	4.2857142857142856	0	0	2	1	0
1316.2117387803751	18.848255647696519	7	4.2857142857142856	0	0	2	1	0
831.74350734777693	65.459633668564621	1	4.2857142857142856	0	0	22	1	0
213.62443085900333	16.812607328041253	7	4.2857142857142856	0	0	2	1	0
1370.5777398294947	17.941845434880623	3	4.2857142857142856	1	0	1	1	0
1432.4118570801313	18.751298369999226	3	4.2857142857142856	1	0	1	1	0
1334.5233898569093	17.469868139711878	7	4.2857142857142856	0	0	10	1	0
1481.6199301505112	19.395467332853464	1	4.2857142857142856	0	0	12	1	0
1369.6384143085013	53.813239859995974	3	4.2857142857142856	1	0	1	1	0
1431.4301535438574	56.24104390674313	3	4.2857142857142856	1	0	1	1	0
1333.6087741864319	52.397631444152054	7	4.2857142857142856	0	0	10	1	0
1480.604501858953	58.17310931407566	1	4.2857142857142856	0	0	12	1	0
1367.7604070333061	89.647753378542603	3	4.2857142857142856	3	0	1	-1	0
1429.4674192818759	93.692244641296185	3	4.2857142857142856	3	0	1	-1	0
1331.780169677372	87.289484029320505	7	4.2857142857142856	0	0	10	1	0
1478.5743411996655	96.910882351985634	1	4.2857142857142856	0	0	12	1	0
1364.9450050962871	125.42082680492877	3	4.2857142857142856	3	0	1	-1	0
1426.5249994542096	131.07923339140416	3	4.2857142857142856	3	0	1	-1	0
1329.0388295639191	122.12151276234226	7	4.2857142857142856	0	0	10	1	0
1475.5308395433563	135.58223751193816	1	4.2857142857142856	0	0	12	1	0
1361.1941380332994	161.10794306153292	3	4.2857142857142856	2	0	1	1	0
1422.6049106484311	168.37638698249944	3	4.2857142857142856	2	0	1	1	0
1325.3866326236539	156.86984551062238	7	4.2857142857142856	0	0	10	1	0
1471.476082754034	174.16067137878386	1	4.2857142857142856	0	0	12	1	0
1356.510376501268	196.68464398148402	3	4.2857142857142856	2	0	1	1	0
1417.7098394975951	205.55814380854511	3	4.2857142857142856	2	0	1	1	0
1320.826081889928	191.51066750261316	7	4.2857142857142856	0	0	10	1	0
1466.4128497594625	212.61974422098618	1	4.2857142857142856	0	0	12	1	0
1325.0692894202828	104.28521473826058	7	0.42857142857142855	0	0	20	1	0
1323.7400663086382	104.18060261062344	7	0.42857142857142855	0	0	20	1	0
