[Format]      =  4.0
[Frequency]   =  0
[Precision]   =  1e-008
[MinAngle]    =  15
[DoSmartMesh] =  1
[Depth]       =  110
[LengthUnits] =  millimeters
[ProblemType] =  planar
[Coordinates] =  cartesian
[ACSolver]    =  0
[PrevType]    =  0
[PrevSoln]    =  ""
[Comment]     =  "Add comments here."
[PointProps]   = 0
[BdryProps]   = 11
  <BeginBdry>
    <BdryName> = "A=0"
    <BdryType> = 0
    <A_0> = 0
    <A_1> = 0
    <A_2> = 0
    <Phi> = 0
    <c0> = 0
    <c0i> = 0
    <c1> = 0
    <c1i> = 0
    <Mu_ssd> = 0
    <Sigma_ssd> = 0
    <innerangle> = 0
    <outerangle> = 0
  <EndBdry>
  <BeginBdry>
    <BdryName> = "APr1"
    <BdryType> = 5
    <A_0> = 0
    <A_1> = 0
    <A_2> = 0
    <Phi> = 0
    <c0> = 0
    <c0i> = 0
    <c1> = 0
    <c1i> = 0
    <Mu_ssd> = 0
    <Sigma_ssd> = 0
    <innerangle> = 0
    <outerangle> = 0
  <EndBdry>
  <BeginBdry>
    <BdryName> = "APr2"
    <BdryType> = 5
    <A_0> = 0
    <A_1> = 0
    <A_2> = 0
    <Phi> = 0
    <c0> = 0
    <c0i> = 0
    <c1> = 0
    <c1i> = 0
    <Mu_ssd> = 0
    <Sigma_ssd> = 0
    <innerangle> = 0
    <outerangle> = 0
  <EndBdry>
  <BeginBdry>
    <BdryName> = "APr3"
    <BdryType> = 5
    <A_0> = 0
    <A_1> = 0
    <A_2> = 0
    <Phi> = 0
    <c0> = 0
    <c0i> = 0
    <c1> = 0
    <c1i> = 0
    <Mu_ssd> = 0
    <Sigma_ssd> = 0
    <innerangle> = 0
    <outerangle> = 0
  <EndBdry>
  <BeginBdry>
    <BdryName> = "APg1"
    <BdryType> = 5
    <A_0> = 0
    <A_1> = 0
    <A_2> = 0
    <Phi> = 0
    <c0> = 0
    <c0i> = 0
    <c1> = 0
    <c1i> = 0
    <Mu_ssd> = 0
    <Sigma_ssd> = 0
    <innerangle> = 0
    <outerangle> = 0
  <EndBdry>
  <BeginBdry>
    <BdryName> = "APg2"
    <BdryType> = 5
    <A_0> = 0
    <A_1> = 0
    <A_2> = 0
    <Phi> = 0
    <c0> = 0
    <c0i> = 0
    <c1> = 0
    <c1i> = 0
    <Mu_ssd> = 0
    <Sigma_ssd> = 0
    <innerangle> = 0
    <outerangle> = 0
  <EndBdry>
  <BeginBdry>
    <BdryName> = "APg3"
    <BdryType> = 5
    <A_0> = 0
    <A_1> = 0
    <A_2> = 0
    <Phi> = 0
    <c0> = 0
    <c0i> = 0
    <c1> = 0
    <c1i> = 0
    <Mu_ssd> = 0
    <Sigma_ssd> = 0
    <innerangle> = 0
    <outerangle> = 0
  <EndBdry>
  <BeginBdry>
    <BdryName> = "APs1"
    <BdryType> = 5
    <A_0> = 0
    <A_1> = 0
    <A_2> = 0
    <Phi> = 0
    <c0> = 0
    <c0i> = 0
    <c1> = 0
    <c1i> = 0
    <Mu_ssd> = 0
    <Sigma_ssd> = 0
    <innerangle> = 0
    <outerangle> = 0
  <EndBdry>
  <BeginBdry>
    <BdryName> = "APs2"
    <BdryType> = 5
    <A_0> = 0
    <A_1> = 0
    <A_2> = 0
    <Phi> = 0
    <c0> = 0
    <c0i> = 0
    <c1> = 0
    <c1i> = 0
    <Mu_ssd> = 0
    <Sigma_ssd> = 0
    <innerangle> = 0
    <outerangle> = 0
  <EndBdry>
  <BeginBdry>
    <BdryName> = "APs3"
    <BdryType> = 5
    <A_0> = 0
    <A_1> = 0
    <A_2> = 0
    <Phi> = 0
    <c0> = 0
    <c0i> = 0
    <c1> = 0
    <c1i> = 0
    <Mu_ssd> = 0
    <Sigma_ssd> = 0
    <innerangle> = 0
    <outerangle> = 0
  <EndBdry>
  <BeginBdry>
    <BdryName> = "AGap"
    <BdryType> = 7
    <A_0> = 0
    <A_1> = 0
    <A_2> = 0
    <Phi> = 0
    <c0> = 0
    <c0i> = 0
    <c1> = 0
    <c1i> = 0
    <Mu_ssd> = 0
    <Sigma_ssd> = 0
    <innerangle> = 2.5
    <outerangle> = 0
  <EndBdry>
[BlockProps]  = 7
  <BeginBlock>
    <BlockName> = "M600-50A"
    <Mu_x> = 1
    <Mu_y> = 1
    <H_c> = 0
    <H_cAngle> = 0
    <J_re> = 0
    <J_im> = 0
    <Sigma> = 0
    <d_lam> = 0
    <Phi_h> = 0
    <Phi_hx> = 0
    <Phi_hy> = 0
    <LamType> = 0
    <LamFill> = 1
    <NStrands> = 0
    <WireD> = 0
    <BHPoints> = 208
      0	0
      0.0061294119999999999	8.2635015680000006
      0.012398954	15.54584049
      0.018188152999999999	21.42337126
      0.023698273999999998	26.396066560000001
      0.028962854999999999	30.670770340000001
      0.034031080999999998	34.409892589999998
      0.038937833999999998	37.72521158
      0.043710287	40.697869570000002
      0.048369641999999997	43.388214720000001
      0.052932743999999997	45.842257519999997
      0.057413198999999998	48.095830579999998
      0.061822165999999998	50.17736026
      0.066168929000000001	52.109762629999999
      0.070461307000000001	53.911772880000001
      0.074705967999999998	55.598898519999999
      0.078908651999999996	57.184116670000002
      0.083074354000000003	58.67839326
      0.087207454000000004	60.091076020000003
      0.091311829999999997	61.430196219999999
      0.095390935999999996	62.702703470000003
      0.099447875000000005	63.914650479999999
      0.10348545000000001	65.071340269999993
      0.107506212	66.177444339999994
      0.111512495	67.237098649999993
      0.115506446	68.253982050000005
      0.119490053	69.231381029999994
      0.123465163	70.172243330000001
      0.127433505	71.079222909999999
      0.131396704	71.954717669999994
      0.13535628999999999	72.800901379999999
      0.139313718	73.619750830000001
      0.14327037200000001	74.413069070000006
      0.147227575	75.182505329999998
      0.151186599	75.929572239999999
      0.15514867099999999	76.655660710000006
      0.15911497799999999	77.362052919999996
      0.16308667299999999	78.049933670000001
      0.167064883	78.720400249999997
      0.171050709	79.374471249999999
      0.17504523399999999	80.013094219999999
      0.17904952399999999	80.637152520000001
      0.183064634	81.247471390000001
      0.18709161099999999	81.844823349999999
      0.19113149500000001	82.429933079999998
      0.19518532499999999	83.003481679999993
      0.19925414	83.566110629999997
      0.203338983	84.118425299999998
      0.20744090200000001	84.6609981
      0.21156095499999999	85.194371430000004
      0.21570021	85.719060249999998
      0.21985974999999999	86.23555451
      0.224040674	86.744321339999999
      0.228244101	87.245807119999995
      0.232471172	87.740439260000002
      0.23672305199999999	88.228628009999994
      0.241000933	88.710768049999999
      0.245306038	89.187239969999993
      0.249639624	89.658411700000002
      0.25400298399999999	90.124639849999994
      0.258397449	90.586270990000003
      0.26282439699999999	91.043642790000007
      0.267285249	91.497085290000001
      0.27178147899999999	91.946921900000007
      0.27631461499999999	92.393470609999994
      0.28088624499999998	92.837044969999994
      0.28549801899999999	93.277955219999996
      0.29015165799999998	93.716509279999997
      0.294848956	94.153013889999997
      0.299591787	94.587775629999996
      0.30438211199999998	95.021102040000002
      0.30922198299999998	95.45330276
      0.31411355600000002	95.884690719999995
      0.31905909100000002	96.315583349999997
      0.324060968	96.746303900000001
      0.32912169099999999	97.177182860000002
      0.33424390300000001	97.608559369999995
      0.33943039400000002	98.040782919999998
      0.34468411100000002	98.474215020000003
      0.35000818	98.909231149999997
      0.35540591100000002	99.346222819999994
      0.36088082199999999	99.785599880000007
      0.366436651	100.2277931
      0.37207738099999998	100.67325700000001
      0.37780725700000001	101.1224732
      0.38363081700000001	101.57595360000001
      0.389552911	102.03424510000001
      0.39557873700000001	102.4979336
      0.401713873	102.9676498
      0.40796431599999999	103.44407510000001
      0.41433652900000001	103.9279489
      0.420837509	104.4200783
      0.42747497499999998	104.9213567
      0.43425898400000001	105.43288579999999
      0.44146202099999998	105.9749185
      0.44856258700000001	106.5079061
      0.45587690400000003	107.05707719999999
      0.46342101400000002	107.62377619999999
      0.47120716099999999	108.2090887
      0.47924850299999999	108.8142005
      0.48755929799999997	109.4404164
      0.496155022	110.0891769
      0.50505251799999995	110.7620768
      0.51427015700000001	111.4608879
      0.52382802100000003	112.1875854
      0.53374812500000002	112.944379
      0.54405466000000002	113.73375040000001
      0.55477427700000004	114.558498
      0.56593642099999997	115.4217907
      0.57757370900000005	116.3272333
      0.58972237000000005	117.2789456
      0.60242275199999995	118.28165920000001
      0.61571989900000001	119.3408371
      0.62966422099999997	120.4628209
      0.64431222899999996	121.65501310000001
      0.65972736300000001	122.92610569999999
      0.67598086099999999	124.28636400000001
      0.69315263800000004	125.74798269999999
      0.71133206000000004	127.3255305
      0.73061842099999996	129.03650049999999
      0.75112078999999998	130.90198509999999
      0.772956635	132.94748089999999
      0.79624826999999998	135.20380520000001
      0.82111564500000001	137.70804709999999
      0.84766332799999999	140.50436830000001
      0.87595905799999996	143.6442744
      0.90600166900000001	147.18571779999999
      0.93767904199999996	151.19014369999999
      0.97072398500000001	155.71669249999999
      1.0046871660000001	160.81373919999999
      1.0389539999999999	166.5100477
      1.0728218	172.80985770000001
      1.1056189649999999	179.69557180000001
      1.1368151129999999	187.13741469999999
      1.166076154	195.10516089999999
      1.1932571599999999	203.57694960000001
      1.2183581130000001	212.54344710000001
      1.2414717689999999	222.00841339999999
      1.262740478	231.98749659999999
      1.2823264919999999	242.50660869999999
      1.3003940249999999	253.6005657
      1.317099609	265.31223169999998
      1.332587655	277.69219570000001
      1.346989049	290.79894300000001
      1.360421377	304.69948410000001
      1.3729899480000001	319.47042970000001
      1.3847891750000001	335.19953839999999
      1.395904035	351.98780690000001
      1.406411522	369.95222330000001
      1.416382027	389.22936779999998
      1.4258806550000001	409.98013700000001
      1.4349684949999999	432.3959911
      1.443703884	456.70731569999998
      1.452143746	483.19477810000001
      1.460345062	512.205018
      1.468366627	544.17275689999997
      1.476271267	579.65265699999998
      1.484128812	619.36640990000001
      1.4920203320000001	664.27439319999996
      1.5000444559999999	715.68841520000001
      1.5083273020000001	775.45608200000004
      1.517038858	846.27605440000002
      1.52642144	932.26565330000005
      1.5368418420000001	1040.044543
      1.5488919160000001	1180.938134
      1.5635876129999999	1375.704356
      1.5827254589999999	1664.518061
      1.609038255	2120.3213700000001
      1.6429877180000001	2803.4219309999999
      1.6763000130000001	3588.174364
      1.7038913950000001	4346.5592559999996
      1.7268422349999999	5076.0393119999999
      1.746445904	5791.6494789999997
      1.7635818270000001	6506.5344940000004
      1.778835427	7231.1495919999998
      1.792609184	7974.1327339999998
      1.805191346	8743.1111569999994
      1.8167966790000001	9545.295204
      1.8275911469999999	10387.927960000001
      1.837707435	11278.663500000001
      1.8472551399999999	12225.930109999999
      1.8563277979999999	13239.325269999999
      1.865008022	14330.08987
      1.873371527	15511.71947
      1.8814906259999999	16800.793989999998
      1.88943763	18218.15107
      1.8972886259999999	19790.607090000001
      1.905128269	21553.57647
      1.913056538	23555.22162
      1.921199232	25863.341659999998
      1.92972568	28577.465530000001
      1.938881257	31851.611560000001
      1.949053186	35941.14198
      1.960921235	41311.621829999996
      1.975868577	48939.738250000002
      1.9972472800000001	61282.289870000001
      2.0280781640000001	81252.957920000001
      2.0737002590000002	113566.1776
      2.1433819129999998	165850.06529999999
      2.250195926	248560.18210000001
      2.3541325240000002	331270.29889999999
      2.4580691219999999	413980.41570000001
      2.5620057200000002	496690.53249999997
      2.665942319	579400.64930000005
      2.7698789170000002	662110.76610000001
      2.873815515	744820.88289999997
      2.9777521130000002	827530.99970000004
      3.081688711	910241.1165
  <EndBlock>
  <BeginBlock>
    <BlockName> = "ShaftAir"
    <Mu_x> = 1
    <Mu_y> = 1
    <H_c> = 0
    <H_cAngle> = 0
    <J_re> = 0
    <J_im> = 0
    <Sigma> = 0
    <d_lam> = 0
    <Phi_h> = 0
    <Phi_hx> = 0
    <Phi_hy> = 0
    <LamType> = 0
    <LamFill> = 1
    <NStrands> = 0
    <WireD> = 0
    <BHPoints> = 3
      -100	-7.9577471545947675e-011
      0	0
      100	7.9577471545947675e-011
  <EndBlock>
  <BeginBlock>
    <BlockName> = "Copper"
    <Mu_x> = 1
    <Mu_y> = 1
    <H_c> = 0
    <H_cAngle> = 0
    <J_re> = 0
    <J_im> = 0
    <Sigma> = 58
    <d_lam> = 0
    <Phi_h> = 0
    <Phi_hx> = 0
    <Phi_hy> = 0
    <LamType> = 0
    <LamFill> = 1
    <NStrands> = 0
    <WireD> = 0
    <BHPoints> = 0
  <EndBlock>
  <BeginBlock>
    <BlockName> = "Aluminium"
    <Mu_x> = 1
    <Mu_y> = 1
    <H_c> = 0
    <H_cAngle> = 0
    <J_re> = 0
    <J_im> = 0
    <Sigma> = 29
    <d_lam> = 0
    <Phi_h> = 0
    <Phi_hx> = 0
    <Phi_hy> = 0
    <LamType> = 0
    <LamFill> = 1
    <NStrands> = 0
    <WireD> = 0
    <BHPoints> = 0
  <EndBlock>
  <BeginBlock>
    <BlockName> = "Air"
    <Mu_x> = 1
    <Mu_y> = 1
    <H_c> = 0
    <H_cAngle> = 0
    <J_re> = 0
    <J_im> = 0
    <Sigma> = 0
    <d_lam> = 0
    <Phi_h> = 0
    <Phi_hx> = 0
    <Phi_hy> = 0
    <LamType> = 0
    <LamFill> = 1
    <NStrands> = 0
    <WireD> = 0
    <BHPoints> = 0
  <EndBlock>
  <BeginBlock>
    <BlockName> = "DW235"
    <Mu_x> = 1
    <Mu_y> = 1
    <H_c> = 0
    <H_cAngle> = 0
    <J_re> = 0
    <J_im> = 0
    <Sigma> = 0
    <d_lam> = 0
    <Phi_h> = 0
    <Phi_hx> = 0
    <Phi_hy> = 0
    <LamType> = 0
    <LamFill> = 1
    <NStrands> = 0
    <WireD> = 0
    <BHPoints> = 0
  <EndBlock>
  <BeginBlock>
    <BlockName> = "Air"
    <Mu_x> = 1
    <Mu_y> = 1
    <H_c> = 0
    <H_cAngle> = 0
    <J_re> = 0
    <J_im> = 0
    <Sigma> = 0
    <d_lam> = 0
    <Phi_h> = 0
    <Phi_hx> = 0
    <Phi_hy> = 0
    <LamType> = 0
    <LamFill> = 1
    <NStrands> = 0
    <WireD> = 0
    <BHPoints> = 0
  <EndBlock>
[CircuitProps]  = 6
  <BeginCircuit>
    <CircuitName> = "fase1"
    <TotalAmps_re> = 852.51755675916752
    <TotalAmps_im> = 0
    <CircuitType> = 1
  <EndCircuit>
  <BeginCircuit>
    <CircuitName> = "fase2"
    <TotalAmps_re> = -634.41873344487112
    <TotalAmps_im> = -0
    <CircuitType> = 1
  <EndCircuit>
  <BeginCircuit>
    <CircuitName> = "fase3"
    <TotalAmps_re> = -218.09882331429611
    <TotalAmps_im> = -0
    <CircuitType> = 1
  <EndCircuit>
  <BeginCircuit>
    <CircuitName> = "fase1n"
    <TotalAmps_re> = -852.51755675916752
    <TotalAmps_im> = -0
    <CircuitType> = 1
  <EndCircuit>
  <BeginCircuit>
    <CircuitName> = "fase2n"
    <TotalAmps_re> = 634.41873344487112
    <TotalAmps_im> = 0
    <CircuitType> = 1
  <EndCircuit>
  <BeginCircuit>
    <CircuitName> = "fase3n"
    <TotalAmps_re> = 218.09882331429611
    <TotalAmps_im> = 0
    <CircuitType> = 1
  <EndCircuit>
[NumPoints] = 131
1215.5273671447908	95.664078486329686	0	2
1193.532804957639	93.933068901340619	0	2
1215.6253834954905	98.83407717325548	0	2
1216.1554706153991	130.5538979572394	0	2
1216.0479587068507	130.61779934920548	0	2
1188.1833488481109	93.512057574937373	0	2
1169.5028743179544	92.04187234512024	0	2
1203.067350054926	128.96045682227239	0	2
1213.2777819815026	155.03377931804843	0	2
1213.1676621274066	155.10613448290866	0	2
1160.8393305514307	91.360036663545046	0	2
1145.4336785072503	90.147585552921868	0	2
1199.4229660175381	159.0756465021384	0	2
1209.9555390058056	179.1257731560768	0	2
1209.8432189107464	179.20129580310382	0	2
1216.1200738003322	92.548440878938095	0	2
1221.6057078636798	61.302067619857404	0	2
1221.509515985199	61.222134392165501	0	2
1208.4294546742753	60.828457712029341	0	2
1222.5929454970435	36.673404538638188	0	2
1222.4955002425929	36.584713645458109	0	2
1209.5409926390514	30.513928723124806	0	2
1223.0804230131282	12.358309820490803	0	2
1222.9813001097098	12.266146248587489	0	2
1230	0	0	20
428.56999999999999	0	0	2
1214.8566589320194	192.41439199948397	0	20
423.29359212885817	67.043118682291748	0	2
0	0	0	2
1500	0	0	1
1232	0	0	20
1481.5325108927066	234.65169756034629	0	1
1216.8320356132097	192.72726092956444	0	20
1242.1064579963572	21.098519004764437	0	1
1242.1697859866103	16.260893239680861	0	1
1243.7619892175217	24.77366203705915	0	1
1455.9255366874136	30.3293600509462	0	1
1466.0245071564441	20.657093216803087	0	1
1466.04938923082	19.191637786815935	0	1
1466.0628768339479	17.726033195029348	0	1
1456.220557458807	7.7927205772294865	0	1
1243.9842819180062	7.7927205772294847	0	1
1242.2331139768635	11.423267474597285	0	1
1354.2174655683837	7.7927205772294847	0	1
1353.9573987089973	27.659230387287369	0	1
1231.8216249127388	20.963883164602038	0	1
1231.9482808932451	11.288631634434886	0	1
1241.1285242941424	53.605845613094829	0	1
1241.3184648630604	48.771535315065847	0	1
1242.6872841769248	57.323066020859613	0	1
1454.6326972782779	68.430654450728312	0	1
1464.9813975112934	59.026062288789547	0	1
1465.0446322102421	57.56176037055242	0	1
1465.0964802471444	56.097011069145019	0	1
1455.5175573999579	45.909460463976622	0	1
1243.3540099300656	40.353762450089562	0	1
1241.5084054319784	43.937225017036859	0	1
1353.5494194215412	43.239330800317774	0	1
1352.7693970802165	63.092225096906155	0	1
1230.8507399213806	53.202030365287257	0	1
1231.2306210592164	43.533409769229294	0	1
1239.2999830971296	86.07643345251374	0	1
1239.6164060689341	81.248751816338427	0	1
1240.760903345368	89.833183638560399	0	1
1452.3429252789522	106.48504989813735	0	1
1462.9342627937419	97.354577846100881	0	1
1463.0358067793595	95.89243299900501	0	1
1463.1259797159814	94.429542853982142	0	1
1453.8170183119912	83.994736299750471	0	1
1241.8716052106379	72.887147869881758	0	1
1239.9328290407389	76.421070180163127	0	1
1351.9537181139297	78.656306945928293	0	1
1350.6542748790164	98.481979546970493	0	1
1229.0362913152467	85.403715551860842	0	1
1229.6691372588557	75.748352279510215	0	1
1236.6220875961174	118.48802880405809	0	1
1237.0647761103094	113.67028448158182	0	1
1237.9841669680484	122.28173407946299	0	1
1449.0577899847883	144.46646581139314	0	1
1459.8845060076692	135.61637143872616	0	1
1460.0242896867799	134.15738574381402	0	1
1460.1527257230948	132.69735734700805	0	1
1451.1201056594539	122.02244633889518	0	1
1239.5380837258695	105.3705800793182	0	1
1237.5074646245014	108.85254015910554	0	1
1349.4314552595179	114.01937598772827	0	1
1347.6134817045006	133.80423936753797	0	1
1226.379522626778	117.54686929780596	0	1
1227.2648996551618	107.9113806528534	0	1
1233.0966730869181	150.81841837926925	0	1
1233.6653237469029	146.01391321179892	0	1
1234.3589780813775	154.64647872793643	0	1
1444.7795428634201	182.34887162524277	0	1
1455.8342173040364	173.78522034455622	0	1
1456.0121448758891	172.33039371774512	0	1
1456.1787559882534	170.87422769968919	0	1
1447.4286677715643	159.96652828847638	0	1
1236.3550447548239	137.7817965565462	0	1
1234.2339744068877	141.2094080443286	0	1
1345.9843594912763	149.30430184462116	0	1
1343.6491015644199	169.03479644611383	0	1
1222.8822546725248	149.60946229113145	0	1
1224.0195559924939	140.0004519561908	0	1
1228.7261557125387	183.04544454407133	0	1
1229.4203787935583	178.25747129945836	0	1
1229.8878212087366	186.90523640465366	0	1
1439.5111160117224	220.10630463100983	0	1
1450.7861725484054	211.83496554112759	0	1
1451.0021220703302	210.38529504791734	0	1
1451.2067940718098	208.9339893920631	0	1
1442.7452345754591	197.80097717007502	0	1
1232.3246697934162	170.09858427276862	0	1
1230.1146018745778	173.46949805484536	0	1
1341.6147932764584	184.48690199094605	0	1
1338.763851446897	204.14950551868199	0	1
1218.5468843052506	181.56952043216205	0	1
1219.9353304672898	171.99357394293611	0	1
1499.485987463336	39.26542246180972	0	1
1231.5778243698865	32.250000315299722	0	1
1497.9443021318607	78.503934364415741	0	1
1230.3115868176349	64.477898091306798	0	1
1495.3760005996919	117.68864359176742	0	1
1228.2021551592136	96.661605936704973	0	1
1491.78284305241	156.79269490148022	0	1
1225.2509750937127	128.77906674574908	0	1
1487.1672920607157	195.78928833007737	0	1
1221.4600692125343	160.80826881510353	0	1
1231.3333333333333	0	0	20
1216.1735767194796	192.62297128620426	0	20
1230.6666666666667	0	0	20
1215.5151178257497	192.51868164284414	0	20
[NumSegments] = 96
0	1	4.2857142857142856	0	0	2
5	6	4.2857142857142856	0	0	2
10	11	4.2857142857142856	0	0	2
24	25	-1	4	0	2
27	26	-1	4	0	2
25	28	-1	2	0	2
28	27	-1	2	0	2
29	30	-1	10	0	1
32	31	-1	10	0	1
33	34	4.2857142857142856	0	0	1
35	33	4.2857142857142856	0	0	1
36	44	4.2857142857142856	0	0	1
38	37	4.2857142857142856	0	0	1
39	38	4.2857142857142856	0	0	1
41	43	4.2857142857142856	0	0	1
42	41	4.2857142857142856	0	0	1
34	42	4.2857142857142856	0	0	1
43	40	4.2857142857142856	0	0	1
44	35	4.2857142857142856	0	0	1
43	44	4.2857142857142856	0	0	1
33	45	4.2857142857142856	0	0	1
46	42	4.2857142857142856	0	0	1
47	48	4.2857142857142856	0	0	1
49	47	4.2857142857142856	0	0	1
50	58	4.2857142857142856	0	0	1
52	51	4.2857142857142856	0	0	1
53	52	4.2857142857142856	0	0	1
55	57	4.2857142857142856	0	0	1
56	55	4.2857142857142856	0	0	1
48	56	4.2857142857142856	0	0	1
57	54	4.2857142857142856	0	0	1
58	49	4.2857142857142856	0	0	1
57	58	4.2857142857142856	0	0	1
47	59	4.2857142857142856	0	0	1
60	56	4.2857142857142856	0	0	1
61	62	4.2857142857142856	0	0	1
63	61	4.2857142857142856	0	0	1
64	72	4.2857142857142856	0	0	1
66	65	4.2857142857142856	0	0	1
67	66	4.2857142857142856	0	0	1
69	71	4.2857142857142856	0	0	1
70	69	4.2857142857142856	0	0	1
62	70	4.2857142857142856	0	0	1
71	68	4.2857142857142856	0	0	1
72	63	4.2857142857142856	0	0	1
71	72	4.2857142857142856	0	0	1
61	73	4.2857142857142856	0	0	1
74	70	4.2857142857142856	0	0	1
75	76	4.2857142857142856	0	0	1
77	75	4.2857142857142856	0	0	1
78	86	4.2857142857142856	0	0	1
80	79	4.2857142857142856	0	0	1
81	80	4.2857142857142856	0	0	1
83	85	4.2857142857142856	0	0	1
84	83	4.2857142857142856	0	0	1
76	84	4.2857142857142856	0	0	1
85	82	4.2857142857142856	0	0	1
86	77	4.2857142857142856	0	0	1
85	86	4.2857142857142856	0	0	1
75	87	4.2857142857142856	0	0	1
88	84	4.2857142857142856	0	0	1
89	90	4.2857142857142856	0	0	1
91	89	4.2857142857142856	0	0	1
92	100	4.2857142857142856	0	0	1
94	93	4.2857142857142856	0	0	1
95	94	4.2857142857142856	0	0	1
97	99	4.2857142857142856	0	0	1
98	97	4.2857142857142856	0	0	1
90	98	4.2857142857142856	0	0	1
99	96	4.2857142857142856	0	0	1
100	91	4.2857142857142856	0	0	1
99	100	4.2857142857142856	0	0	1
89	101	4.2857142857142856	0	0	1
102	98	4.2857142857142856	0	0	1
103	104	4.2857142857142856	0	0	1
105	103	4.2857142857142856	0	0	1
106	114	4.2857142857142856	0	0	1
108	107	4.2857142857142856	0	0	1
109	108	4.2857142857142856	0	0	1
111	113	4.2857142857142856	0	0	1
112	111	4.2857142857142856	0	0	1
104	112	4.2857142857142856	0	0	1
113	110	4.2857142857142856	0	0	1
114	105	4.2857142857142856	0	0	1
113	114	4.2857142857142856	0	0	1
103	115	4.2857142857142856	0	0	1
116	112	4.2857142857142856	0	0	1
117	118	4.2857142857142856	0	0	1
119	120	4.2857142857142856	0	0	1
121	122	4.2857142857142856	0	0	1
123	124	4.2857142857142856	0	0	1
125	126	4.2857142857142856	0	0	1
127	30	0.42857142857142855	7	0	20
128	32	0.42857142857142855	7	0	20
129	24	0.42857142857142855	5	0	20
130	26	0.42857142857142855	5	0	20
[NumArcSegments] = 64
2	0	12.542042192836107	4.2286083019432352	0	0	2	4.2286083019432352
2	3	14.169260965834747	0.47732240172397172	0	0	2	0.47732240172397172
3	4	106.29396408750246	10	0	0	2	10
4	1	72.07881713960154	1.6781958516808295	0	0	2	1.6781958516808295
7	5	54.552922214976093	1.4635101988492196	0	0	2	1.4635101988492196
7	8	57.334769472902799	2.1034378432977894	0	0	2	2.1034378432977894
8	9	98.821809846129838	10	0	0	2	10
9	6	78.396342895845862	1.0116033572264891	0	0	2	1.0116033572264891
12	10	68.348062184593857	0.88488292450698092	0	0	2	0.88488292450698092
12	13	72.269151030860684	3.1966910145584451	0	0	2	3.1966910145584451
13	14	95.325021062803927	10	0	0	2	10
14	11	80.753890090760251	0.72368165437773901	0	0	2	0.72368165437773901
0	15	12.542042192836277	4.228608301942991	0	0	2	4.228608301942991
16	15	14.16926096583477	0.47732240172397294	0	0	2	0.47732240172397294
17	16	106.29396408753738	10	0	0	2	10
1	17	72.078817139601242	1.678195851680407	0	0	2	1.678195851680407
5	18	54.552922214975879	1.4635101988492407	0	0	2	1.4635101988492407
19	18	57.334769472902828	2.1034378432979621	0	0	2	2.1034378432979621
20	19	98.821809846205539	10	0	0	2	10
6	20	78.396342895845876	1.0116033572264949	0	0	2	1.0116033572264949
10	21	68.348062184593886	0.88488292450698114	0	0	2	0.88488292450698114
22	21	72.269151030860613	3.1966910145583114	0	0	2	3.1966910145583114
23	22	95.325021062684669	10	0	0	2	10
11	23	80.753890090760237	0.72368165437771226	0	0	2	0.72368165437771226
24	26	9.0000000000000018	0.049909215603730246	0	0	2	0.049909215603730246
25	27	9.0000000000000018	0.14323992624912665	0	0	2	0.14323992624912665
29	117	1.5	4.2857142857142856	1	0	1	0.14999999999999999
30	46	0.52499999999999991	0.049828194149828087	0	0	1	0.049828194149828087
37	36	90.527264259128984	6.2369176924906737	0	0	1	6.2369176924906737
40	39	90.527264259129552	6.2369176924906666	0	0	1	6.2369176924906666
45	118	0.52499999999999991	0.049828194149828087	0	0	1	0.049828194149828087
46	45	0.45000000000000007	0.049828194149828087	0	0	1	0.049828194149828087
51	50	90.527264259128302	6.2369176924905982	0	0	1	6.2369176924905982
54	53	90.527264259130106	6.2369176924906675	0	0	1	6.2369176924906675
59	120	0.52500000000000069	0.049828194149828087	0	0	1	0.049828194149828087
60	59	0.45000000000000034	0.049828194149828087	0	0	1	0.049828194149828087
65	64	90.527264259129907	6.2369176924908869	0	0	1	6.2369176924908869
68	67	90.527264259129595	6.2369176924906657	0	0	1	6.2369176924906657
73	122	0.52500000000000069	0.049828194149828087	0	0	1	0.049828194149828087
74	73	0.45000000000000062	0.049828194149828087	0	0	1	0.049828194149828087
79	78	90.527264259128401	6.2369176924905316	0	0	1	6.2369176924905316
82	81	90.527264259129069	6.2369176924906746	0	0	1	6.2369176924906746
87	124	0.52500000000000069	0.049828194149828087	0	0	1	0.049828194149828087
88	87	0.44999999999999873	0.049828194149828087	0	0	1	0.049828194149828087
93	92	90.527264259130291	6.2369176924907084	0	0	1	6.2369176924907084
96	95	90.527264259129637	6.2369176924906782	0	0	1	6.2369176924906782
101	126	0.52500000000000069	0.049828194149828087	0	0	1	0.049828194149828087
102	101	0.45000000000000034	0.049828194149828087	0	0	1	0.049828194149828087
107	106	90.527264259128415	6.2369176924907128	0	0	1	6.2369176924907128
110	109	90.527264259130149	6.236917692490672	0	0	1	6.236917692490672
115	32	0.52500000000000069	0.049828194149828087	0	0	1	0.049828194149828087
116	115	0.44999999999999957	0.049828194149828087	0	0	1	0.049828194149828087
117	119	1.5000000000000011	4.2857142857142856	1	0	1	0.25
118	60	0.52499999999999969	0.049828194149828087	0	0	1	0.049828194149828087
119	121	1.5000000000000007	4.2857142857142856	1	0	1	0.25
120	74	0.52499999999999958	0.049828194149828087	0	0	1	0.049828194149828087
121	123	1.5000000000000002	4.2857142857142856	1	0	1	0.25
122	88	0.52500000000000002	0.049828194149828087	0	0	1	0.049828194149828087
123	125	1.5	4.2857142857142856	1	0	1	0.25
124	102	0.52499999999999769	0.049828194149828087	0	0	1	0.049828194149828087
125	31	1.5000000000000013	4.2857142857142856	1	0	1	0.14000000000000001
126	116	0.52499999999999913	0.049828194149828087	0	0	1	0.049828194149828087
127	128	9	0.42857142857142855	11	0	20	0.029000000000000001
129	130	9	0.42857142857142855	11	0	20	0.029000000000000001
[NumHoles] = 0
[NumBlockLabels] = 34
1215.9429376059134	120.00192482656679	7	4.2857142857142856	0	0	2	1	0
1209.8375980546116	146.36679020774315	7	4.2857142857142856	0	0	2	1	0
1206.4072413113631	172.46757182043967	7	4.2857142857142856	0	0	2	1	0
1219.7450992164036	71.690880963653669	7	4.2857142857142856	0	0	2	1	0
1217.8393001379704	44.695525298708539	7	4.2857142857142856	0	0	2	1	0
1218.5342385872964	18.379461597401018	7	4.2857142857142856	0	0	2	1	0
786.34127011262854	61.886400104502194	1	4.2857142857142856	0	0	22	1	0
213.62443085900333	16.812607328041253	7	4.2857142857142856	0	0	2	1	0
1298.1286090626504	16.993434360969644	3	4.2857142857142856	1	0	1	1	0
1410.0462552147308	18.45851660354721	3	4.2857142857142856	1	0	1	1	0
1237.0321187788934	16.193637491788603	7	4.2857142857142856	0	0	10	1	0
1482.9604402959153	19.413015571916297	1	4.2857142857142856	0	0	12	1	0
1297.2389365569697	50.968656631838904	3	4.2857142857142856	1	0	1	1	0
1409.0798799447887	55.362899265385025	3	4.2857142857142856	1	0	1	1	0
1236.1843187558154	48.569814165119176	7	4.2857142857142856	0	0	10	1	0
1481.9440932856633	58.225742004577661	1	4.2857142857142856	0	0	12	1	0
1295.4602012827036	84.908947531393906	3	4.2857142857142856	3	0	1	-1	0
1407.1477917102427	92.22933896150488	3	4.2857142857142856	3	0	1	-1	0
1234.4892997494467	80.912703513937331	7	4.2857142857142856	0	0	10	1	0
1479.9120958186327	96.998563422109797	1	4.2857142857142856	0	0	12	1	0
1292.7936222961594	118.79104607960747	3	4.2857142857142856	3	0	1	-1	0
1404.2513146678593	129.0325692756588	3	4.2857142857142856	3	0	1	-1	0
1231.9482234411462	113.20013933744676	7	4.2857142857142856	0	0	10	1	0
1476.8658405243862	135.7049068694588	1	4.2857142857142856	0	0	12	1	0
1289.2410271373756	152.59173117858319	3	4.2857142857142856	2	0	1	1	0
1400.3924339183209	165.74736711215181	3	4.2857142857142856	2	0	1	1	0
1228.5628313576858	145.40999343992743	7	4.2857142857142856	0	0	10	1	0
1472.8074151541393	174.31824495225078	1	4.2857142857142856	0	0	12	1	0
1284.804850577618	186.28783752713619	3	4.2857142857142856	2	0	1	1	0
1395.5737941457376	202.34856998249191	3	4.2857142857142856	2	0	1	1	0
1224.3354436776958	177.52019079629559	7	4.2857142857142856	0	0	10	1	0
1467.7396011499179	212.81211401734311	1	4.2857142857142856	0	0	12	1	0
1227.8698493813026	96.635452904795699	7	0.42857142857142855	0	0	20	1	0
1226.5406262696583	96.530840777158559	7	0.42857142857142855	0	0	20	1	0
