[Format]      =  4.0
[Frequency]   =  0
[Precision]   =  1e-008
[MinAngle]    =  15
[DoSmartMesh] =  1
[Depth]       =  134
[LengthUnits] =  millimeters
[ProblemType] =  planar
[Coordinates] =  cartesian
[ACSolver]    =  0
[PrevType]    =  0
[PrevSoln]    =  ""
[Comment]     =  "Add comments here."
[PointProps]   = 0
[BdryProps]   = 11
  <BeginBdry>
    <BdryName> = "A=0"
    <BdryType> = 0
    <A_0> = 0
    <A_1> = 0
    <A_2> = 0
    <Phi> = 0
    <c0> = 0
    <c0i> = 0
    <c1> = 0
    <c1i> = 0
    <Mu_ssd> = 0
    <Sigma_ssd> = 0
    <innerangle> = 0
    <outerangle> = 0
  <EndBdry>
  <BeginBdry>
    <BdryName> = "APr1"
    <BdryType> = 5
    <A_0> = 0
    <A_1> = 0
    <A_2> = 0
    <Phi> = 0
    <c0> = 0
    <c0i> = 0
    <c1> = 0
    <c1i> = 0
    <Mu_ssd> = 0
    <Sigma_ssd> = 0
    <innerangle> = 0
    <outerangle> = 0
  <EndBdry>
  <BeginBdry>
    <BdryName> = "APr2"
    <BdryType> = 5
    <A_0> = 0
    <A_1> = 0
    <A_2> = 0
    <Phi> = 0
    <c0> = 0
    <c0i> = 0
    <c1> = 0
    <c1i> = 0
    <Mu_ssd> = 0
    <Sigma_ssd> = 0
    <innerangle> = 0
    <outerangle> = 0
  <EndBdry>
  <BeginBdry>
    <BdryName> = "APr3"
    <BdryType> = 5
    <A_0> = 0
    <A_1> = 0
    <A_2> = 0
    <Phi> = 0
    <c0> = 0
    <c0i> = 0
    <c1> = 0
    <c1i> = 0
    <Mu_ssd> = 0
    <Sigma_ssd> = 0
    <innerangle> = 0
    <outerangle> = 0
  <EndBdry>
  <BeginBdry>
    <BdryName> = "APg1"
    <BdryType> = 5
    <A_0> = 0
    <A_1> = 0
    <A_2> = 0
    <Phi> = 0
    <c0> = 0
    <c0i> = 0
    <c1> = 0
    <c1i> = 0
    <Mu_ssd> = 0
    <Sigma_ssd> = 0
    <innerangle> = 0
    <outerangle> = 0
  <EndBdry>
  <BeginBdry>
    <BdryName> = "APg2"
    <BdryType> = 5
    <A_0> = 0
    <A_1> = 0
    <A_2> = 0
    <Phi> = 0
    <c0> = 0
    <c0i> = 0
    <c1> = 0
    <c1i> = 0
    <Mu_ssd> = 0
    <Sigma_ssd> = 0
    <innerangle> = 0
    <outerangle> = 0
  <EndBdry>
  <BeginBdry>
    <BdryName> = "APg3"
    <BdryType> = 5
    <A_0> = 0
    <A_1> = 0
    <A_2> = 0
    <Phi> = 0
    <c0> = 0
    <c0i> = 0
    <c1> = 0
    <c1i> = 0
    <Mu_ssd> = 0
    <Sigma_ssd> = 0
    <innerangle> = 0
    <outerangle> = 0
  <EndBdry>
  <BeginBdry>
    <BdryName> = "APs1"
    <BdryType> = 5
    <A_0> = 0
    <A_1> = 0
    <A_2> = 0
    <Phi> = 0
    <c0> = 0
    <c0i> = 0
    <c1> = 0
    <c1i> = 0
    <Mu_ssd> = 0
    <Sigma_ssd> = 0
    <innerangle> = 0
    <outerangle> = 0
  <EndBdry>
  <BeginBdry>
    <BdryName> = "APs2"
    <BdryType> = 5
    <A_0> = 0
    <A_1> = 0
    <A_2> = 0
    <Phi> = 0
    <c0> = 0
    <c0i> = 0
    <c1> = 0
    <c1i> = 0
    <Mu_ssd> = 0
    <Sigma_ssd> = 0
    <innerangle> = 0
    <outerangle> = 0
  <EndBdry>
  <BeginBdry>
    <BdryName> = "APs3"
    <BdryType> = 5
    <A_0> = 0
    <A_1> = 0
    <A_2> = 0
    <Phi> = 0
    <c0> = 0
    <c0i> = 0
    <c1> = 0
    <c1i> = 0
    <Mu_ssd> = 0
    <Sigma_ssd> = 0
    <innerangle> = 0
    <outerangle> = 0
  <EndBdry>
  <BeginBdry>
    <BdryName> = "AGap"
    <BdryType> = 7
    <A_0> = 0
    <A_1> = 0
    <A_2> = 0
    <Phi> = 0
    <c0> = 0
    <c0i> = 0
    <c1> = 0
    <c1i> = 0
    <Mu_ssd> = 0
    <Sigma_ssd> = 0
    <innerangle> = 2.7999999999999998
    <outerangle> = 0
  <EndBdry>
[BlockProps]  = 9
  <BeginBlock>
    <BlockName> = "M270-35A"
    <Mu_x> = 1
    <Mu_y> = 1
    <H_c> = 0
    <H_cAngle> = 0
    <J_re> = 0
    <J_im> = 0
    <Sigma> = 0
    <d_lam> = 0
    <Phi_h> = 0
    <Phi_hx> = 0
    <Phi_hy> = 0
    <LamType> = 0
    <LamFill> = 1
    <NStrands> = 0
    <WireD> = 0
    <BHPoints> = 200
      0	0
      0.0045422769999999999	3.2767874890000002
      0.0090353559999999996	6.114592773
      0.013222249	8.4602422570000009
      0.017196487	10.462328400000001
      0.020991169	12.199266809999999
      0.024640190999999999	13.72982376
      0.028168996000000002	15.09561901
      0.031597466999999997	16.327217480000002
      0.034941272000000002	17.447599879999999
      0.038212956999999999	18.47443998
      0.041422729999999998	19.421601849999998
      0.044579012000000001	20.300151339999999
      0.047688851999999997	21.119056130000001
      0.050758219	21.885681389999998
      0.053792226999999998	22.60614816
      0.056795300999999999	23.285597330000002
      0.059771310000000001	23.928387470000001
      0.062723663999999998	24.538245379999999
      0.065655396000000005	25.11838217
      0.068569221	25.67158405
      0.071467592999999996	26.200284
      0.074352739000000001	26.70661905
      0.077226698999999996	27.19247648
      0.080091349000000006	27.65953137
      0.082948429000000004	28.109277410000001
      0.085799557999999998	28.54305239
      0.088646256000000007	28.96205934
      0.091489953999999998	29.36738437
      0.094332005999999996	29.760011540000001
      0.097173704999999999	30.140835630000002
      0.100016285	30.510672870000001
      0.102860934	30.870270300000001
      0.105708802	31.220313650000001
      0.108561001	31.561434299999998
      0.11141862	31.894215259999999
      0.114282722	32.21919639
      0.117154355	32.536878999999999
      0.120034552	32.847729870000002
      0.12292433699999999	33.152184810000001
      0.12582473199999999	33.45065185
      0.12873675200000001	33.743513989999997
      0.13166142	34.031131799999997
      0.13459976100000001	34.313845620000002
      0.137552811	34.591977620000002
      0.14052161499999999	34.865833639999998
      0.14350723800000001	35.135704879999999
      0.14651076099999999	35.401869419999997
      0.14953328699999999	35.664593680000003
      0.15257594699999999	35.924133650000002
      0.155639899	36.180736189999998
      0.158726334	36.434640119999997
      0.161836481	36.686077320000003
      0.16497160599999999	36.93527375
      0.16813302299999999	37.182450420000002
      0.17132209400000001	37.427824389999998
      0.17454023399999999	37.671609650000001
      0.17778891699999999	37.914018050000003
      0.18106968000000001	38.155260249999998
      0.18438413100000001	38.395546590000002
      0.18773395400000001	38.635088090000004
      0.191120915	38.87409736
      0.19454686800000001	39.112789630000002
      0.19801376800000001	39.351383830000003
      0.20152367299999999	39.590103640000002
      0.20507876	39.829178749999997
      0.208681327	40.068846100000002
      0.21233381500000001	40.309351300000003
      0.216038808	40.550950149999998
      0.21979905799999999	40.793910310000001
      0.22361749	41.038513199999997
      0.227497227	41.285056060000002
      0.2314416	41.53385428
      0.23545417299999999	41.785244059999997
      0.23953876299999999	42.039585369999998
      0.24369946200000001	42.297265359999997
      0.247940667	42.558702250000003
      0.25226710400000002	42.824349750000003
      0.25668386300000001	43.0947022
      0.26119642799999998	43.370300520000001
      0.26581071499999998	43.651739030000002
      0.27054201700000002	43.94020278
      0.275438138	44.23873004
      0.28051031599999998	44.548036490000001
      0.28576849199999999	44.868763260000001
      0.29122336399999998	45.201605100000002
      0.296886504	45.547319020000003
      0.30277045699999999	45.906731970000003
      0.30888884599999999	46.280749559999997
      0.31525650100000002	46.670366299999998
      0.321889598	47.076677459999999
      0.328805825	47.50089294
      0.33602457000000002	47.944353649999996
      0.34356714500000002	48.408550759999997
      0.351457032	48.895148689999999
      0.35972019	49.406012390000001
      0.36838539799999998	49.943240269999997
      0.37748466600000002	50.509203810000002
      0.38705371900000002	51.106595769999998
      0.39713256899999999	51.738489119999997
      0.40776619800000002	52.408409570000003
      0.41900536300000002	53.120425429999997
      0.43090757000000002	53.879259759999997
      0.44353822799999998	54.690431349999997
      0.45697202599999998	55.560433060000001
      0.47129457299999999	56.49695913
      0.486604327	57.509196449999997
      0.503014823	58.60819978
      0.520657166	59.807376320000003
      0.53968265500000001	61.123111049999999
      0.56026517099999995	62.575567960000001
      0.58260257699999995	64.189698669999999
      0.60691558199999995	65.996464399999994
      0.63344113800000001	68.034201780000004
      0.662415215	70.349880479999996
      0.69403682899999997	72.999622560000006
      0.72840307800000004	76.047204840000006
      0.76540934699999996	79.558509650000005
      0.80463064699999998	83.589963030000007
      0.84524547999999999	88.171938179999998
      0.88609953900000005	93.294734669999997
      0.92594964300000004	98.90894376
      0.963771241	104.9435902
      0.99893980100000002	111.3300564
      1.0312218310000001	118.0174305
      1.0606584889999999	124.9760964
      1.0874410889999999	132.19454709999999
      1.1118223309999999	139.6744898
      1.1340651580000001	147.42664859999999
      1.1544176930000001	155.46782519999999
      1.173103241	163.8190534
      1.1903180360000001	172.50453999999999
      1.2062325739999999	181.55112829999999
      1.220994358	190.98810510000001
      1.234730984	200.84723579999999
      1.2475531	211.16296399999999
      1.2595570490000001	221.97273730000001
      1.270827143	233.31744900000001
      1.281437594	245.2419931
      1.291454146	257.79594609999998
      1.3009354369999999	271.03439809999998
      1.309934159	285.01896390000002
      1.318498043	299.81902289999999
      1.326670706	315.51324579999999
      1.3344924010000001	332.19149570000002
      1.3420006879999999	349.95721329999998
      1.3492310569999999	368.93044570000001
      1.356217531	389.25173360000002
      1.362993272	411.08716509999999
      1.3695912379999999	434.63503709999998
      1.3760449050000001	460.1347695
      1.382389146	487.87903890000001
      1.3886613240000001	518.23060969999995
      1.394902732	551.64618570000005
      1.401160583	588.71104339999999
      1.4074908660000001	630.19074279999995
      1.4139626249999999	677.11087850000001
      1.420664664	730.8848299
      1.4277165590000001	793.52783980000004
      1.435287779	868.03580320000003
      1.4436331710000001	959.10175079999999
      1.453164339	1074.5891859999999
      1.464608755	1228.9034079999999
      1.479413587	1451.8548430000001
      1.5007295060000001	1812.597843
      1.531321148	2396.2922779999999
      1.5749716949999999	3340.7297119999998
      1.6351726849999999	4868.8615820000005
      1.6746062129999999	6056.7860730000002
      1.7053540309999999	7126.7301200000002
      1.7307497590000001	8135.9466300000004
      1.752580204	9119.3875740000003
      1.771845345	10098.25848
      1.789165838	11087.22133
      1.804957089	12097.58993
      1.819514077	13138.977849999999
      1.8330565510000001	14220.25051
      1.845754994	15350.15127
      1.8577465099999999	16537.778849999999
      1.869145125	17793.012470000001
      1.8800488470000001	19126.948680000001
      1.8905448170000001	20552.403480000001
      1.9007133519999999	22084.53774
      1.9106314310000001	23741.68173
      1.920376064	25546.46932
      1.930027954	27527.455720000002
      1.9396760099999999	29721.505959999999
      1.9494234969999999	32177.45292
      1.959397184	34961.935420000002
      1.969762051	38169.180130000001
      1.980746793	41938.394229999998
      1.9926918389999999	46487.096960000003
      2.0061495709999999	52181.595710000001
      2.022124024	59707.652569999998
      2.042772002	70576.241299999994
      2.0725625070000002	88161.987269999998
      2.1158769670000002	116616.322
      2.1803765140000002	162656.4026
      2.2792825830000001	237150.818
      2.3747656959999999	310949.48619999998
  <EndBlock>
  <BeginBlock>
    <BlockName> = "ShaftAir"
    <Mu_x> = 1
    <Mu_y> = 1
    <H_c> = 0
    <H_cAngle> = 0
    <J_re> = 0
    <J_im> = 0
    <Sigma> = 0
    <d_lam> = 0
    <Phi_h> = 0
    <Phi_hx> = 0
    <Phi_hy> = 0
    <LamType> = 0
    <LamFill> = 1
    <NStrands> = 0
    <WireD> = 0
    <BHPoints> = 3
      -100	-7.9577471545947675e-011
      0	0
      100	7.9577471545947675e-011
  <EndBlock>
  <BeginBlock>
    <BlockName> = "Copper"
    <Mu_x> = 1
    <Mu_y> = 1
    <H_c> = 0
    <H_cAngle> = 0
    <J_re> = 0
    <J_im> = 0
    <Sigma> = 58
    <d_lam> = 0
    <Phi_h> = 0
    <Phi_hx> = 0
    <Phi_hy> = 0
    <LamType> = 0
    <LamFill> = 1
    <NStrands> = 0
    <WireD> = 0
    <BHPoints> = 0
  <EndBlock>
  <BeginBlock>
    <BlockName> = "Aluminium"
    <Mu_x> = 1
    <Mu_y> = 1
    <H_c> = 0
    <H_cAngle> = 0
    <J_re> = 0
    <J_im> = 0
    <Sigma> = 29
    <d_lam> = 0
    <Phi_h> = 0
    <Phi_hx> = 0
    <Phi_hy> = 0
    <LamType> = 0
    <LamFill> = 1
    <NStrands> = 0
    <WireD> = 0
    <BHPoints> = 0
  <EndBlock>
  <BeginBlock>
    <BlockName> = "BMN-52UH"
    <Mu_x> = 1.05
    <Mu_y> = 1.05
    <H_c> = 1098926.9880154678
    <H_cAngle> = 0
    <J_re> = 0
    <J_im> = 0
    <Sigma> = 0.66600000000000004
    <d_lam> = 0
    <Phi_h> = 0
    <Phi_hx> = 0
    <Phi_hy> = 0
    <LamType> = 0
    <LamFill> = 1
    <NStrands> = 0
    <WireD> = 0
    <BHPoints> = 0
  <EndBlock>
  <BeginBlock>
    <BlockName> = "DW235"
    <Mu_x> = 1
    <Mu_y> = 1
    <H_c> = 0
    <H_cAngle> = 0
    <J_re> = 0
    <J_im> = 0
    <Sigma> = 0
    <d_lam> = 0
    <Phi_h> = 0
    <Phi_hx> = 0
    <Phi_hy> = 0
    <LamType> = 0
    <LamFill> = 1
    <NStrands> = 0
    <WireD> = 0
    <BHPoints> = 0
  <EndBlock>
  <BeginBlock>
    <BlockName> = "Air"
    <Mu_x> = 1
    <Mu_y> = 1
    <H_c> = 0
    <H_cAngle> = 0
    <J_re> = 0
    <J_im> = 0
    <Sigma> = 0
    <d_lam> = 0
    <Phi_h> = 0
    <Phi_hx> = 0
    <Phi_hy> = 0
    <LamType> = 0
    <LamFill> = 1
    <NStrands> = 0
    <WireD> = 0
    <BHPoints> = 0
  <EndBlock>
  <BeginBlock>
    <BlockName> = "BMN-52UH_1"
    <Mu_x> = 1.05
    <Mu_y> = 1.05
    <H_c> = 1023101.0258424005
    <H_cAngle> = 0
    <J_re> = 0
    <J_im> = 0
    <Sigma> = 0.66600000000000004
    <d_lam> = 0
    <Phi_h> = 0
    <Phi_hx> = 0
    <Phi_hy> = 0
    <LamType> = 0
    <LamFill> = 1
    <NStrands> = 0
    <WireD> = 0
    <BHPoints> = 0
  <EndBlock>
  <BeginBlock>
    <BlockName> = "BMN-52UH_2"
    <Mu_x> = 1.05
    <Mu_y> = 1.05
    <H_c> = 1023101.0258424005
    <H_cAngle> = 0
    <J_re> = 0
    <J_im> = 0
    <Sigma> = 0.66600000000000004
    <d_lam> = 0
    <Phi_h> = 0
    <Phi_hx> = 0
    <Phi_hy> = 0
    <LamType> = 0
    <LamFill> = 1
    <NStrands> = 0
    <WireD> = 0
    <BHPoints> = 0
  <EndBlock>
[CircuitProps]  = 6
  <BeginCircuit>
    <CircuitName> = "fase1"
    <TotalAmps_re> = 17.957751968971152
    <TotalAmps_im> = 0
    <CircuitType> = 1
  <EndCircuit>
  <BeginCircuit>
    <CircuitName> = "fase2"
    <TotalAmps_re> = -225.60756758561234
    <TotalAmps_im> = -0
    <CircuitType> = 1
  <EndCircuit>
  <BeginCircuit>
    <CircuitName> = "fase3"
    <TotalAmps_re> = 207.64981561664121
    <TotalAmps_im> = 0
    <CircuitType> = 1
  <EndCircuit>
  <BeginCircuit>
    <CircuitName> = "fase1n"
    <TotalAmps_re> = -17.957751968971152
    <TotalAmps_im> = -0
    <CircuitType> = 1
  <EndCircuit>
  <BeginCircuit>
    <CircuitName> = "fase2n"
    <TotalAmps_re> = 225.60756758561234
    <TotalAmps_im> = 0
    <CircuitType> = 1
  <EndCircuit>
  <BeginCircuit>
    <CircuitName> = "fase3n"
    <TotalAmps_re> = -207.64981561664121
    <TotalAmps_im> = -0
    <CircuitType> = 1
  <EndCircuit>
[NumPoints] = 153
66.005776885179756	5.1947673011485946	0	2
65.178407481066358	5.1296519168704027	0	2
65.94187699284457	8.26783608312412	0	2
65.878481668022062	9.0705927654195584	0	2
65.097743535226698	9.0089362901633265	0	2
65.997461277929403	5.5946808551525287	0	2
65.369052833684009	5.5816140366793032	0	2
65.944033501345857	8.1641254396278082	0	2
65.315625057100462	8.151058621154581	0	2
66.42339757749518	2.1495369498708814	0	2
66.486361566472112	1.3467463207081813	0	2
65.70559041792913	1.2855093503006043	0	2
66.060123919736554	4.7984764990412501	0	2
65.43740812546622	4.7130777044936369	0	2
66.409303616763978	2.2523080955015637	0	2
65.786587822493644	2.1669093009539497	0	2
67.5	0	0	20
34.75	0	0	2
66.668962990171806	10.559326390215583	0	20
34.322169835681038	5.4360976601480226	0	2
0	0	0	2
112.5	0	0	1
68.200000000000003	0	0	20
111.114938316953	17.598877317025973	0	1
67.360344828588396	10.668830515743746	0	20
69.195740440382366	0.76753640423052494	0	1
69.197168695810305	0.6038745427031692	0	1
69.233594634928863	0.91390771398031712	0	1
110.12797815969529	1.6277218336045465	0	1
110.80828059954847	0.96700921491356151	0	1
110.13961279821163	0.29452431127404322	0	1
69.238999911996075	0.29452431127404316	0	1
69.198596951238244	0.44021268117581347	0	1
90.005988475615482	0.29452431127404316	0	1
89.997420285602857	1.2763416388710216	0	1
68.195778517318189	0.75880986873215106	0	1
68.198635028174067	0.43148614567743959	0	1
69.171806236674172	1.9750516906128428	0	1
69.176090567897532	1.8114396820739365	0	1
69.207100134254972	2.1220613540917763	0	1
110.08279747219783	3.5494721586445248	0	1
110.77452732385393	2.9007330843661929	0	1
110.11769784372325	2.2166807411942977	0	1
69.223314318956838	1.5028666215700683	0	1
69.18037489912092	1.6478276735350299	0	1
89.987139969630832	1.8653005464607728	0	1
89.961438009546669	2.8468188029886869	0	1
68.172148911698599	1.9488747423049695	0	1
68.180717574145348	1.6216507252271568	0	1
69.126801630703937	3.1819653571174449	0	1
69.133940732673949	3.0184530393697337	0	1
69.159524480455943	3.3295685937579087	0	1
110.00408449819433	5.4701412800804707	0	1
110.7070310540396	4.8335733624212951	0	1
110.0622399717376	4.1381619486873156	0	1
69.186542633794744	2.7107511441345675	0	1
69.141079834643975	2.8549407216220226	0	1
89.94088050908644	3.4355085930314786	0	1
89.898052607996746	4.416428798521209	0	1
68.127753409122064	3.1383459697521086	0	1
68.142031613062102	2.8113213342566867	0	1
69.060740331310612	4.3879097661498783	0	1
69.070732029387671	4.2245469466293279	0	1
69.090882165536797	4.5360616145761288	0	1
109.89186321441916	7.3891441434920573	0	1
110.60581235012312	6.7649412872063257	0	1
109.97325607525967	6.0583826319634904	0	1
69.128696057521296	3.9178099456409274	0	1
69.080723727464701	4.0611841271087776	0	1
89.867224185062099	5.0046701504042286	0	1
89.807283388760425	5.984693507058795	0	1
68.062605532888739	4.326861226615021	0	1
68.082588929042842	4.0001355875739204	0	1
68.973642461405973	5.5925175753609064	0	1
68.986483712022022	5.4293540159648739	0	1
69.001194098611649	5.7411729070847315	0	1
109.74616780456252	9.3058962020172888	0	1
110.47090204430224	8.6942485453418179	0	1
109.85077325964637	7.9767578732010964	0	1
69.049792210764025	5.1236753442851679	0	1
68.99932496263807	5.2661904565688413	0	1
89.766193433987652	6.5723072367678359	0	1
89.689158001021212	7.5511352199791038	0	1
67.97672512767285	5.5140584796330607	0	1
68.002407628904933	5.1877313608409956	0	1
68.865534551844917	6.795421849542544	0	1
68.881221443430633	6.6325072514718224	0	1
68.890487599534481	6.9445353827098453	0	1
109.56704264885761	11.219813594411143	0	1
110.30234123156299	10.620907451147319	0	1
109.69482883434985	9.8927033167179381	0	1
68.949855128398994	6.3279800217853808	0	1
68.896908335016349	6.4695926534010999	0	1
89.637819030808558	8.137942334679753	0	1
89.5437124269165	9.1152767839619155	0	1
67.870138353477742	6.6995760970223195	0	1
67.901512136649174	6.3737469008808763	0	1
68.736449533343944	7.9962561724000825	0	1
68.754977287520205	7.8336401610194333	0	1
68.758796390577359	8.1457824855841636	0	1
109.35454231056208	13.130313322895368	0	1
110.10018125716184	12.544331125656162	0	1
109.50547030155272	11.805635346971737	0	1
68.828915252229606	7.5303571352704397	0	1
68.773505041696438	7.6710241496387832	0	1
89.482140079611625	9.7010985365225118	0	1
89.370990970577139	10.676641746334667	0	1
67.742877677667366	7.8830529586321756	0	1
67.779933186019846	7.5578209358708763	0	1
68.586426726450185	9.1946547581660347	0	1
68.607789699483547	9.032386867887821	0	1
68.606160586158239	9.3445483042034034	0	1
109.10873151933751	15.036813430745234	0	1
109.86448370098535	14.463933675384464	0	1
109.28275534169842	13.714971266335093	0	1
68.687009421713711	8.7304404290238882	0	1
68.629152672516923	8.8701189776096054	0	1
89.299204001713505	11.261299689774393	0	1
89.17104624463191	12.234754500204531	0	1
67.594981865076377	9.0641285659459818	0	1
67.637707811143102	8.7395927853895543	0	1
68.415511829563926	10.390252563022029	0	1
68.439703514085892	10.228382222217553	0	1
68.432626680621794	10.540467682886511	0	1
108.82968515153215	16.938733179559218	0	1
109.59532035879239	16.379130370799974	0	1
109.02675179592124	15.620129472590811	0	1
68.524180862741972	9.9278643460489793	0	1
68.46389519860783	10.066511881413078	0	1
89.089066521215642	12.818070542050107	0	1
88.943939154181237	13.789140429332905	0	1
67.426495966201998	10.242443151892417	0	1
67.474879335245916	9.918702470283467	0	1
112.48286570509401	1.9633957241943951	0	1
68.189612809665888	1.1902541190227356	0	1
112.43146803964828	3.9261933790313592	0	1
68.158454402702333	2.3801456751105663	0	1
112.34582265988955	5.8877950773311811	0	1
68.106534270261932	3.5693122157687696	0	1
112.22595565423022	7.8476032962140962	0	1
68.033868227720006	4.757391509349346	0	1
112.07190353532137	9.8050210591115441	0	1
67.94047840985705	5.9440216553902872	0	1
111.88371322893074	11.759452117611014	0	1
67.826393264116234	7.1288411948539663	0	1
111.66144205964872	13.71030113307909	0	1
67.691647541938167	8.3114892202310582	0	1
111.40515773342666	15.656973858007362	0	1
67.536282288175101	9.4916054854764624	0	1
67.966666666666669	0	0	20
67.129884215782866	10.632329140567691	0	20
67.733333333333334	0	0	20
66.899423602977336	10.595827765391638	0	20
[NumSegments] = 132
0	1	0.25	0	0	2
2	7	0.25	0	0	2
1	4	0.25	0	0	2
5	0	0.25	0	0	2
5	6	0.25	0	0	2
7	5	0.25	0	0	2
8	7	0.25	0	0	2
6	8	0.25	0	0	2
9	14	0.25	0	0	2
1	11	0.25	0	0	2
12	0	0.25	0	0	2
12	13	0.25	0	0	2
14	12	0.25	0	0	2
15	14	0.25	0	0	2
13	15	0.25	0	0	2
16	17	-1	4	0	2
19	18	-1	4	0	2
17	20	-1	2	0	2
20	19	-1	2	0	2
21	22	-1	10	0	1
24	23	-1	10	0	1
25	26	0.25	0	0	1
27	25	0.25	0	0	1
28	34	0.25	0	0	1
31	33	0.25	0	0	1
32	31	0.25	0	0	1
26	32	0.25	0	0	1
33	30	0.25	0	0	1
34	27	0.25	0	0	1
33	34	0.25	0	0	1
25	35	0.25	0	0	1
36	32	0.25	0	0	1
37	38	0.25	0	0	1
39	37	0.25	0	0	1
40	46	0.25	0	0	1
43	45	0.25	0	0	1
44	43	0.25	0	0	1
38	44	0.25	0	0	1
45	42	0.25	0	0	1
46	39	0.25	0	0	1
45	46	0.25	0	0	1
37	47	0.25	0	0	1
48	44	0.25	0	0	1
49	50	0.25	0	0	1
51	49	0.25	0	0	1
52	58	0.25	0	0	1
55	57	0.25	0	0	1
56	55	0.25	0	0	1
50	56	0.25	0	0	1
57	54	0.25	0	0	1
58	51	0.25	0	0	1
57	58	0.25	0	0	1
49	59	0.25	0	0	1
60	56	0.25	0	0	1
61	62	0.25	0	0	1
63	61	0.25	0	0	1
64	70	0.25	0	0	1
67	69	0.25	0	0	1
68	67	0.25	0	0	1
62	68	0.25	0	0	1
69	66	0.25	0	0	1
70	63	0.25	0	0	1
69	70	0.25	0	0	1
61	71	0.25	0	0	1
72	68	0.25	0	0	1
73	74	0.25	0	0	1
75	73	0.25	0	0	1
76	82	0.25	0	0	1
79	81	0.25	0	0	1
80	79	0.25	0	0	1
74	80	0.25	0	0	1
81	78	0.25	0	0	1
82	75	0.25	0	0	1
81	82	0.25	0	0	1
73	83	0.25	0	0	1
84	80	0.25	0	0	1
85	86	0.25	0	0	1
87	85	0.25	0	0	1
88	94	0.25	0	0	1
91	93	0.25	0	0	1
92	91	0.25	0	0	1
86	92	0.25	0	0	1
93	90	0.25	0	0	1
94	87	0.25	0	0	1
93	94	0.25	0	0	1
85	95	0.25	0	0	1
96	92	0.25	0	0	1
97	98	0.25	0	0	1
99	97	0.25	0	0	1
100	106	0.25	0	0	1
103	105	0.25	0	0	1
104	103	0.25	0	0	1
98	104	0.25	0	0	1
105	102	0.25	0	0	1
106	99	0.25	0	0	1
105	106	0.25	0	0	1
97	107	0.25	0	0	1
108	104	0.25	0	0	1
109	110	0.25	0	0	1
111	109	0.25	0	0	1
112	118	0.25	0	0	1
115	117	0.25	0	0	1
116	115	0.25	0	0	1
110	116	0.25	0	0	1
117	114	0.25	0	0	1
118	111	0.25	0	0	1
117	118	0.25	0	0	1
109	119	0.25	0	0	1
120	116	0.25	0	0	1
121	122	0.25	0	0	1
123	121	0.25	0	0	1
124	130	0.25	0	0	1
127	129	0.25	0	0	1
128	127	0.25	0	0	1
122	128	0.25	0	0	1
129	126	0.25	0	0	1
130	123	0.25	0	0	1
129	130	0.25	0	0	1
121	131	0.25	0	0	1
132	128	0.25	0	0	1
133	134	0.25	0	0	1
135	136	0.25	0	0	1
137	138	0.25	0	0	1
139	140	0.25	0	0	1
141	142	0.25	0	0	1
143	144	0.25	0	0	1
145	146	0.25	0	0	1
147	148	0.25	0	0	1
149	22	0.025000000000000001	7	0	20
150	24	0.025000000000000001	7	0	20
151	16	0.025000000000000001	5	0	20
152	18	0.025000000000000001	5	0	20
[NumArcSegments] = 62
2	3	6.6483677921084405	0.51572406991331832	0	0	2	0.51572406991331832
3	4	173.35163220794286	9.1294761156968605	0	0	2	9.1294761156968605
10	9	6.6483677921084334	0.51572406991374053	0	0	2	0.51572406991374053
11	10	173.35163220794252	9.1294761122157393	0	0	2	9.1294761122157393
16	18	8.9999999999999982	0.053051647697298449	0	0	2	0.053051647697298449
17	19	9	0.10304996315302577	0	0	2	0.10304996315302577
21	133	1.0000000000000002	0.25	1	0	1	0.13
22	36	0.36249999999999988	0.052507129319173687	0	0	1	0.052507129319173687
29	28	90.326142221642542	5.3553172403582883	0	0	1	5.3553172403582883
30	29	90.326142221643266	5.3553172403583345	0	0	1	5.3553172403583345
35	134	0.36249999999999993	0.052507129319173687	0	0	1	0.052507129319173687
36	35	0.27500000000000013	0.052507129319173687	0	0	1	0.052507129319173687
41	40	90.326142221643266	5.3553172403583655	0	0	1	5.3553172403583655
42	41	90.326142221644005	5.3553172403583353	0	0	1	5.3553172403583353
47	136	0.36249999999999999	0.052507129319173687	0	0	1	0.052507129319173687
48	47	0.27499999999999991	0.052507129319173687	0	0	1	0.052507129319173687
53	52	90.326142221641547	5.3553172403582856	0	0	1	5.3553172403582856
54	53	90.326142221643408	5.3553172403583345	0	0	1	5.3553172403583345
59	138	0.3624999999999996	0.052507129319173687	0	0	1	0.052507129319173687
60	59	0.27499999999999941	0.052507129319173687	0	0	1	0.052507129319173687
65	64	90.326142221642712	5.3553172403582803	0	0	1	5.3553172403582803
66	65	90.326142221642513	5.3553172403583407	0	0	1	5.3553172403583407
71	140	0.36250000000000043	0.052507129319173687	0	0	1	0.052507129319173687
72	71	0.2750000000000003	0.052507129319173687	0	0	1	0.052507129319173687
77	76	90.326142221641732	5.3553172403581275	0	0	1	5.3553172403581275
78	77	90.326142221642726	5.3553172403583345	0	0	1	5.3553172403583345
83	142	0.36249999999999882	0.052507129319173687	0	0	1	0.052507129319173687
84	83	0.27499999999999902	0.052507129319173687	0	0	1	0.052507129319173687
89	88	90.326142221643011	5.3553172403582989	0	0	1	5.3553172403582989
90	89	90.326142221643636	5.3553172403583469	0	0	1	5.3553172403583469
95	144	0.36250000000000115	0.052507129319173687	0	0	1	0.052507129319173687
96	95	0.27499999999999991	0.052507129319173687	0	0	1	0.052507129319173687
101	100	90.326142221641405	5.3553172403582376	0	0	1	5.3553172403582376
102	101	90.326142221643565	5.3553172403583345	0	0	1	5.3553172403583345
107	146	0.36250000000000043	0.052507129319173687	0	0	1	0.052507129319173687
108	107	0.27499999999999991	0.052507129319173687	0	0	1	0.052507129319173687
113	112	90.326142221642854	5.355317240358354	0	0	1	5.355317240358354
114	113	90.326142221643579	5.3553172403583407	0	0	1	5.3553172403583407
119	148	0.36249999999999882	0.052507129319173687	0	0	1	0.052507129319173687
120	119	0.27499999999999902	0.052507129319173687	0	0	1	0.052507129319173687
125	124	90.32614222164284	5.355317240358402	0	0	1	5.355317240358402
126	125	90.326142221643849	5.3553172403583398	0	0	1	5.3553172403583398
131	24	0.36250000000000199	0.052507129319173687	0	0	1	0.052507129319173687
132	131	0.27500000000000069	0.052507129319173687	0	0	1	0.052507129319173687
133	135	1	0.25	1	0	1	0.25
134	48	0.36249999999999999	0.052507129319173687	0	0	1	0.052507129319173687
135	137	1.0000000000000009	0.25	1	0	1	0.20000000000000001
136	60	0.36250000000000021	0.052507129319173687	0	0	1	0.052507129319173687
137	139	1.0000000000000004	0.25	1	0	1	0.20000000000000001
138	72	0.36249999999999893	0.052507129319173687	0	0	1	0.052507129319173687
139	141	0.99999999999999956	0.25	1	0	1	0.25
140	84	0.36249999999999943	0.052507129319173687	0	0	1	0.052507129319173687
141	143	1.0000000000000002	0.25	1	0	1	0.20000000000000001
142	96	0.36249999999999943	0.052507129319173687	0	0	1	0.052507129319173687
143	145	1.0000000000000007	0.25	1	0	1	0.20000000000000001
144	108	0.36250000000000016	0.052507129319173687	0	0	1	0.052507129319173687
145	147	0.99999999999999956	0.25	1	0	1	0.20000000000000001
146	120	0.36249999999999782	0.052507129319173687	0	0	1	0.052507129319173687
147	23	1.000000000000002	0.25	1	0	1	0.13
148	132	0.36249999999999866	0.052507129319173687	0	0	1	0.052507129319173687
149	150	9	0.025000000000000001	11	0	20	0.025000000000000001
151	152	9	0.025000000000000001	11	0	20	0.025000000000000001
[NumHoles] = 0
[NumBlockLabels] = 44
65.65654316751494	6.8728697381535548	8	0.25	0	1.1912088127646125	201	1	0
65.923355871115092	3.4826928999975992	9	0.25	0	7.8087911872353368	202	1	0
65.639367398697772	8.7824550462356683	7	0.25	0	0	2	1	0
66.205116520632146	1.5939308736265563	7	0.25	0	0	2	1	0
49.910642414146274	3.9280527467065069	1	0.25	0	0	22	1	0
17.321438673613098	1.3632267882713058	7	0.25	0	0	2	1	0
79.599436538209744	0.69465375888785086	3	0.25	1	0	1	1	0
100.40397222300861	0.87621219125721383	3	0.25	1	0	1	1	0
68.697285924393398	0.59951213184613583	7	0.25	0	0	10	1	0
111.65199847213388	0.97437222924031464	1	0.25	0	0	12	1	0
79.575189778743152	2.0837496783993332	3	0.25	1	0	1	1	0
100.37338820043436	2.6283696710501268	3	0.25	1	0	1	1	0
68.67636006561527	1.7983537783354429	7	0.25	0	0	10	1	0
111.61798819180207	2.9228198845009619	1	0.25	0	0	12	1	0
79.526703645607768	3.4722108675730388	3	0.25	1	0	1	1	0
100.31222947147542	4.3797265239796488	3	0.25	1	0	1	1	0
68.634514722278325	2.9966476288428243	7	0.25	0	0	10	1	0
111.54997799099931	4.8703772205107976	1	0.25	0	0	12	1	0
79.453992908149473	4.8596143876804199	3	0.25	3	0	1	-1	0
100.22051466567306	6.1297492697826046	3	0.25	3	0	1	-1	0
68.571762640879498	4.1940286714532835	7	0.25	0	0	10	1	0
111.44798858629159	6.8164509924388632	1	0.25	0	0	12	1	0
79.357079714763231	6.2455376221691719	3	0.25	3	0	1	-1	0
100.09827172024563	7.8779048345777678	3	0.25	3	0	1	-1	0
68.488122936310688	5.39013217230195	7	0.25	0	0	10	1	0
111.31205104463956	8.7604484073621887	1	0.25	0	0	12	1	0
79.235993586146591	7.6295584053963292	3	0.25	3	0	1	-1	0
99.945537871578495	9.6236607132453411	3	0.25	3	0	1	-1	0
68.383621086036115	6.5845937866755495	7	0.25	0	0	10	1	0
111.14220677393531	10.701777304836259	1	0.25	0	0	12	1	0
79.090771406307297	9.0112551512240113	3	0.25	2	0	1	1	0
99.762359643881481	11.366485131633166	3	0.25	2	0	1	1	0