[Format]      =  4.0
[Frequency]   =  0
[Precision]   =  1e-008
[MinAngle]    =  15
[DoSmartMesh] =  1
[Depth]       =  110
[LengthUnits] =  millimeters
[ProblemType] =  planar
[Coordinates] =  cartesian
[ACSolver]    =  0
[PrevType]    =  0
[PrevSoln]    =  ""
[Comment]     =  "Add comments here."
[PointProps]   = 0
[BdryProps]   = 11
  <BeginBdry>
    <BdryName> = "A=0"
    <BdryType> = 0
    <A_0> = 0
    <A_1> = 0
    <A_2> = 0
    <Phi> = 0
    <c0> = 0
    <c0i> = 0
    <c1> = 0
    <c1i> = 0
    <Mu_ssd> = 0
    <Sigma_ssd> = 0
    <innerangle> = 0
    <outerangle> = 0
  <EndBdry>
  <BeginBdry>
    <BdryName> = "APr1"
    <BdryType> = 5
    <A_0> = 0
    <A_1> = 0
    <A_2> = 0
    <Phi> = 0
    <c0> = 0
    <c0i> = 0
    <c1> = 0
    <c1i> = 0
    <Mu_ssd> = 0
    <Sigma_ssd> = 0
    <innerangle> = 0
    <outerangle> = 0
  <EndBdry>
  <BeginBdry>
    <BdryName> = "APr2"
    <BdryType> = 5
    <A_0> = 0
    <A_1> = 0
    <A_2> = 0
    <Phi> = 0
    <c0> = 0
    <c0i> = 0
    <c1> = 0
    <c1i> = 0
    <Mu_ssd> = 0
    <Sigma_ssd> = 0
    <innerangle> = 0
    <outerangle> = 0
  <EndBdry>
  <BeginBdry>
    <BdryName> = "APr3"
    <BdryType> = 5
    <A_0> = 0
    <A_1> = 0
    <A_2> = 0
    <Phi> = 0
    <c0> = 0
    <c0i> = 0
    <c1> = 0
    <c1i> = 0
    <Mu_ssd> = 0
    <Sigma_ssd> = 0
    <innerangle> = 0
    <outerangle> = 0
  <EndBdry>
  <BeginBdry>
    <BdryName> = "APg1"
    <BdryType> = 5
    <A_0> = 0
    <A_1> = 0
    <A_2> = 0
    <Phi> = 0
    <c0> = 0
    <c0i> = 0
    <c1> = 0
    <c1i> = 0
    <Mu_ssd> = 0
    <Sigma_ssd> = 0
    <innerangle> = 0
    <outerangle> = 0
  <EndBdry>
  <BeginBdry>
    <BdryName> = "APg2"
    <BdryType> = 5
    <A_0> = 0
    <A_1> = 0
    <A_2> = 0
    <Phi> = 0
    <c0> = 0
    <c0i> = 0
    <c1> = 0
    <c1i> = 0
    <Mu_ssd> = 0
    <Sigma_ssd> = 0
    <innerangle> = 0
    <outerangle> = 0
  <EndBdry>
  <BeginBdry>
    <BdryName> = "APg3"
    <BdryType> = 5
    <A_0> = 0
    <A_1> = 0
    <A_2> = 0
    <Phi> = 0
    <c0> = 0
    <c0i> = 0
    <c1> = 0
    <c1i> = 0
    <Mu_ssd> = 0
    <Sigma_ssd> = 0
    <innerangle> = 0
    <outerangle> = 0
  <EndBdry>
  <BeginBdry>
    <BdryName> = "APs1"
    <BdryType> = 5
    <A_0> = 0
    <A_1> = 0
    <A_2> = 0
    <Phi> = 0
    <c0> = 0
    <c0i> = 0
    <c1> = 0
    <c1i> = 0
    <Mu_ssd> = 0
    <Sigma_ssd> = 0
    <innerangle> = 0
    <outerangle> = 0
  <EndBdry>
  <BeginBdry>
    <BdryName> = "APs2"
    <BdryType> = 5
    <A_0> = 0
    <A_1> = 0
    <A_2> = 0
    <Phi> = 0
    <c0> = 0
    <c0i> = 0
    <c1> = 0
    <c1i> = 0
    <Mu_ssd> = 0
    <Sigma_ssd> = 0
    <innerangle> = 0
    <outerangle> = 0
  <EndBdry>
  <BeginBdry>
    <BdryName> = "APs3"
    <BdryType> = 5
    <A_0> = 0
    <A_1> = 0
    <A_2> = 0
    <Phi> = 0
    <c0> = 0
    <c0i> = 0
    <c1> = 0
    <c1i> = 0
    <Mu_ssd> = 0
    <Sigma_ssd> = 0
    <innerangle> = 0
    <outerangle> = 0
  <EndBdry>
  <BeginBdry>
    <BdryName> = "AGap"
    <BdryType> = 7
    <A_0> = 0
    <A_1> = 0
    <A_2> = 0
    <Phi> = 0
    <c0> = 0
    <c0i> = 0
    <c1> = 0
    <c1i> = 0
    <Mu_ssd> = 0
    <Sigma_ssd> = 0
    <innerangle> = 16.666666666666668
    <outerangle> = 0
  <EndBdry>
[BlockProps]  = 7
  <BeginBlock>
    <BlockName> = "M600-50A"
    <Mu_x> = 1
    <Mu_y> = 1
    <H_c> = 0
    <H_cAngle> = 0
    <J_re> = 0
    <J_im> = 0
    <Sigma> = 0
    <d_lam> = 0
    <Phi_h> = 0
    <Phi_hx> = 0
    <Phi_hy> = 0
    <LamType> = 0
    <LamFill> = 1
    <NStrands> = 0
    <WireD> = 0
    <BHPoints> = 208
      0	0
      0.0061294119999999999	8.2635015680000006
      0.012398954	15.54584049
      0.018188152999999999	21.42337126
      0.023698273999999998	26.396066560000001
      0.028962854999999999	30.670770340000001
      0.034031080999999998	34.409892589999998
      0.038937833999999998	37.72521158
      0.043710287	40.697869570000002
      0.048369641999999997	43.388214720000001
      0.052932743999999997	45.842257519999997
      0.057413198999999998	48.095830579999998
      0.061822165999999998	50.17736026
      0.066168929000000001	52.109762629999999
      0.070461307000000001	53.911772880000001
      0.074705967999999998	55.598898519999999
      0.078908651999999996	57.184116670000002
      0.083074354000000003	58.67839326
      0.087207454000000004	60.091076020000003
      0.091311829999999997	61.430196219999999
      0.095390935999999996	62.702703470000003
      0.099447875000000005	63.914650479999999
      0.10348545000000001	65.071340269999993
      0.107506212	66.177444339999994
      0.111512495	67.237098649999993
      0.115506446	68.253982050000005
      0.119490053	69.231381029999994
      0.123465163	70.172243330000001
      0.127433505	71.079222909999999
      0.131396704	71.954717669999994
      0.13535628999999999	72.800901379999999
      0.139313718	73.619750830000001
      0.14327037200000001	74.413069070000006
      0.147227575	75.182505329999998
      0.151186599	75.929572239999999
      0.15514867099999999	76.655660710000006
      0.15911497799999999	77.362052919999996
      0.16308667299999999	78.049933670000001
      0.167064883	78.720400249999997
      0.171050709	79.374471249999999
      0.17504523399999999	80.013094219999999
      0.17904952399999999	80.637152520000001
      0.183064634	81.247471390000001
      0.18709161099999999	81.844823349999999
      0.19113149500000001	82.429933079999998
      0.19518532499999999	83.003481679999993
      0.19925414	83.566110629999997
      0.203338983	84.118425299999998
      0.20744090200000001	84.6609981
      0.21156095499999999	85.194371430000004
      0.21570021	85.719060249999998
      0.21985974999999999	86.23555451
      0.224040674	86.744321339999999
      0.228244101	87.245807119999995
      0.232471172	87.740439260000002
      0.23672305199999999	88.228628009999994
      0.241000933	88.710768049999999
      0.245306038	89.187239969999993
      0.249639624	89.658411700000002
      0.25400298399999999	90.124639849999994
      0.258397449	90.586270990000003
      0.26282439699999999	91.043642790000007
      0.267285249	91.497085290000001
      0.27178147899999999	91.946921900000007
      0.27631461499999999	92.393470609999994
      0.28088624499999998	92.837044969999994
      0.28549801899999999	93.277955219999996
      0.29015165799999998	93.716509279999997
      0.294848956	94.153013889999997
      0.299591787	94.587775629999996
      0.30438211199999998	95.021102040000002
      0.30922198299999998	95.45330276
      0.31411355600000002	95.884690719999995
      0.31905909100000002	96.315583349999997
      0.324060968	96.746303900000001
      0.32912169099999999	97.177182860000002
      0.33424390300000001	97.608559369999995
      0.33943039400000002	98.040782919999998
      0.34468411100000002	98.474215020000003
      0.35000818	98.909231149999997
      0.35540591100000002	99.346222819999994
      0.36088082199999999	99.785599880000007
      0.366436651	100.2277931
      0.37207738099999998	100.67325700000001
      0.37780725700000001	101.1224732
      0.38363081700000001	101.57595360000001
      0.389552911	102.03424510000001
      0.39557873700000001	102.4979336
      0.401713873	102.9676498
      0.40796431599999999	103.44407510000001
      0.41433652900000001	103.9279489
      0.420837509	104.4200783
      0.42747497499999998	104.9213567
      0.43425898400000001	105.43288579999999
      0.44146202099999998	105.9749185
      0.44856258700000001	106.5079061
      0.45587690400000003	107.05707719999999
      0.46342101400000002	107.62377619999999
      0.47120716099999999	108.2090887
      0.47924850299999999	108.8142005
      0.48755929799999997	109.4404164
      0.496155022	110.0891769
      0.50505251799999995	110.7620768
      0.51427015700000001	111.4608879
      0.52382802100000003	112.1875854
      0.53374812500000002	112.944379
      0.54405466000000002	113.73375040000001
      0.55477427700000004	114.558498
      0.56593642099999997	115.4217907
      0.57757370900000005	116.3272333
      0.58972237000000005	117.2789456
      0.60242275199999995	118.28165920000001
      0.61571989900000001	119.3408371
      0.62966422099999997	120.4628209
      0.64431222899999996	121.65501310000001
      0.65972736300000001	122.92610569999999
      0.67598086099999999	124.28636400000001
      0.69315263800000004	125.74798269999999
      0.71133206000000004	127.3255305
      0.73061842099999996	129.03650049999999
      0.75112078999999998	130.90198509999999
      0.772956635	132.94748089999999
      0.79624826999999998	135.20380520000001
      0.82111564500000001	137.70804709999999
      0.84766332799999999	140.50436830000001
      0.87595905799999996	143.6442744
      0.90600166900000001	147.18571779999999
      0.93767904199999996	151.19014369999999
      0.97072398500000001	155.71669249999999
      1.0046871660000001	160.81373919999999
      1.0389539999999999	166.5100477
      1.0728218	172.80985770000001
      1.1056189649999999	179.69557180000001
      1.1368151129999999	187.13741469999999
      1.166076154	195.10516089999999
      1.1932571599999999	203.57694960000001
      1.2183581130000001	212.54344710000001
      1.2414717689999999	222.00841339999999
      1.262740478	231.98749659999999
      1.2823264919999999	242.50660869999999
      1.3003940249999999	253.6005657
      1.317099609	265.31223169999998
      1.332587655	277.69219570000001
      1.346989049	290.79894300000001
      1.360421377	304.69948410000001
      1.3729899480000001	319.47042970000001
      1.3847891750000001	335.19953839999999
      1.395904035	351.98780690000001
      1.406411522	369.95222330000001
      1.416382027	389.22936779999998
      1.4258806550000001	409.98013700000001
      1.4349684949999999	432.3959911
      1.443703884	456.70731569999998
      1.452143746	483.19477810000001
      1.460345062	512.205018
      1.468366627	544.17275689999997
      1.476271267	579.65265699999998
      1.484128812	619.36640990000001
      1.4920203320000001	664.27439319999996
      1.5000444559999999	715.68841520000001
      1.5083273020000001	775.45608200000004
      1.517038858	846.27605440000002
      1.52642144	932.26565330000005
      1.5368418420000001	1040.044543
      1.5488919160000001	1180.938134
      1.5635876129999999	1375.704356
      1.5827254589999999	1664.518061
      1.609038255	2120.3213700000001
      1.6429877180000001	2803.4219309999999
      1.6763000130000001	3588.174364
      1.7038913950000001	4346.5592559999996
      1.7268422349999999	5076.0393119999999
      1.746445904	5791.6494789999997
      1.7635818270000001	6506.5344940000004
      1.778835427	7231.1495919999998
      1.792609184	7974.1327339999998
      1.805191346	8743.1111569999994
      1.8167966790000001	9545.295204
      1.8275911469999999	10387.927960000001
      1.837707435	11278.663500000001
      1.8472551399999999	12225.930109999999
      1.8563277979999999	13239.325269999999
      1.865008022	14330.08987
      1.873371527	15511.71947
      1.8814906259999999	16800.793989999998
      1.88943763	18218.15107
      1.8972886259999999	19790.607090000001
      1.905128269	21553.57647
      1.913056538	23555.22162
      1.921199232	25863.341659999998
      1.92972568	28577.465530000001
      1.938881257	31851.611560000001
      1.949053186	35941.14198
      1.960921235	41311.621829999996
      1.975868577	48939.738250000002
      1.9972472800000001	61282.289870000001
      2.0280781640000001	81252.957920000001
      2.0737002590000002	113566.1776
      2.1433819129999998	165850.06529999999
      2.250195926	248560.18210000001
      2.3541325240000002	331270.29889999999
      2.4580691219999999	413980.41570000001
      2.5620057200000002	496690.53249999997
      2.665942319	579400.64930000005
      2.7698789170000002	662110.76610000001
      2.873815515	744820.88289999997
      2.9777521130000002	827530.99970000004
      3.081688711	910241.1165
  <EndBlock>
  <BeginBlock>
    <BlockName> = "ShaftAir"
    <Mu_x> = 1
    <Mu_y> = 1
    <H_c> = 0
    <H_cAngle> = 0
    <J_re> = 0
    <J_im> = 0
    <Sigma> = 0
    <d_lam> = 0
    <Phi_h> = 0
    <Phi_hx> = 0
    <Phi_hy> = 0
    <LamType> = 0
    <LamFill> = 1
    <NStrands> = 0
    <WireD> = 0
    <BHPoints> = 3
      -100	-7.9577471545947675e-011
      0	0
      100	7.9577471545947675e-011
  <EndBlock>
  <BeginBlock>
    <BlockName> = "Copper"
    <Mu_x> = 1
    <Mu_y> = 1
    <H_c> = 0
    <H_cAngle> = 0
    <J_re> = 0
    <J_im> = 0
    <Sigma> = 58
    <d_lam> = 0
    <Phi_h> = 0
    <Phi_hx> = 0
    <Phi_hy> = 0
    <LamType> = 0
    <LamFill> = 1
    <NStrands> = 0
    <WireD> = 0
    <BHPoints> = 0
  <EndBlock>
  <BeginBlock>
    <BlockName> = "Aluminium"
    <Mu_x> = 1
    <Mu_y> = 1
    <H_c> = 0
    <H_cAngle> = 0
    <J_re> = 0
    <J_im> = 0
    <Sigma> = 29
    <d_lam> = 0
    <Phi_h> = 0
    <Phi_hx> = 0
    <Phi_hy> = 0
    <LamType> = 0
    <LamFill> = 1
    <NStrands> = 0
    <WireD> = 0
    <BHPoints> = 0
  <EndBlock>
  <BeginBlock>
    <BlockName> = "Air"
    <Mu_x> = 1
    <Mu_y> = 1
    <H_c> = 0
    <H_cAngle> = 0
    <J_re> = 0
    <J_im> = 0
    <Sigma> = 0
    <d_lam> = 0
    <Phi_h> = 0
    <Phi_hx> = 0
    <Phi_hy> = 0
    <LamType> = 0
    <LamFill> = 1
    <NStrands> = 0
    <WireD> = 0
    <BHPoints> = 0
  <EndBlock>
  <BeginBlock>
    <BlockName> = "DW235"
    <Mu_x> = 1
    <Mu_y> = 1
    <H_c> = 0
    <H_cAngle> = 0
    <J_re> = 0
    <J_im> = 0
    <Sigma> = 0
    <d_lam> = 0
    <Phi_h> = 0
    <Phi_hx> = 0
    <Phi_hy> = 0
    <LamType> = 0
    <LamFill> = 1
    <NStrands> = 0
    <WireD> = 0
    <BHPoints> = 0
  <EndBlock>
  <BeginBlock>
    <BlockName> = "Air"
    <Mu_x> = 1
    <Mu_y> = 1
    <H_c> = 0
    <H_cAngle> = 0
    <J_re> = 0
    <J_im> = 0
    <Sigma> = 0
    <d_lam> = 0
    <Phi_h> = 0
    <Phi_hx> = 0
    <Phi_hy> = 0
    <LamType> = 0
    <LamFill> = 1
    <NStrands> = 0
    <WireD> = 0
    <BHPoints> = 0
  <EndBlock>
[CircuitProps]  = 6
  <BeginCircuit>
    <CircuitName> = "fase1"
    <TotalAmps_re> = 4805.0734288426838
    <TotalAmps_im> = 0
    <CircuitType> = 1
  <EndCircuit>
  <BeginCircuit>
    <CircuitName> = "fase2"
    <TotalAmps_re> = -2092.797256343365
    <TotalAmps_im> = -0
    <CircuitType> = 1
  <EndCircuit>
  <BeginCircuit>
    <CircuitName> = "fase3"
    <TotalAmps_re> = -2712.276172499317
    <TotalAmps_im> = -0
    <CircuitType> = 1
  <EndCircuit>
  <BeginCircuit>
    <CircuitName> = "fase1n"
    <TotalAmps_re> = -4805.0734288426838
    <TotalAmps_im> = -0
    <CircuitType> = 1
  <EndCircuit>
  <BeginCircuit>
    <CircuitName> = "fase2n"
    <TotalAmps_re> = 2092.797256343365
    <TotalAmps_im> = 0
    <CircuitType> = 1
  <EndCircuit>
  <BeginCircuit>
    <CircuitName> = "fase3n"
    <TotalAmps_re> = 2712.276172499317
    <TotalAmps_im> = 0
    <CircuitType> = 1
  <EndCircuit>
[NumPoints] = 131
712.52620318977949	411.37719521628111	0	2
680.0607334409043	392.63324751740032	0	2
685.44426381950268	548.3856331722651	0	2
674.26167806327294	585.72634630909806	0	2
653.49935903234223	580.73105011613518	0	2
641.77654755159472	370.52986248850181	0	2
585.69982707626468	338.15395282679862	0	2
612.16991431436395	597.45895514051915	0	2
590.24335278263857	670.3110828273808	0	2
567.60064611375219	665.29800653097368	0	2
547.21682297034999	315.93578004702329	0	2
469.49645599576974	271.06390525273287	0	2
520.31453947147361	667.19655677248466	0	2
496.64394224507743	742.32671910458282	0	2
449.1566618224133	729.02238864941773	0	2
817.63802130734723	319.41932875987936	0	2
844.38473460115711	291.06456884657001	0	2
829.67752168315815	275.5815212207882	0	2
823.49959002737887	231.42521965852245	0	2
875.62810255808608	176.01019651097491	0	2
859.96529779984462	158.90757547348346	0	2
837.96643721821488	117.00733075445464	0	2
891.19576777506268	58.942911067597038	0	2
855.93023940921466	24.469885092517018	0	2
900	0	0	20
428.56999999999999	0	0	2
450.00000000000011	779.42286340599469	0	20
214.28500000000005	371.15250729989685	0	2
0	0	0	2
1500	0	0	1
905.57142857142856	0	0	20
750.00000000000011	1299.038105676658	0	1
452.78571428571439	784.24786208422233	0	20
909.99685877092793	103.41005507894174	0	1
912.06289406109408	79.795163652991519	0	1
918.53635086975351	126.8721167940767	0	1
1274.3211618919165	189.60657830354648	0	1
1342.3220886605957	139.07386203831922	0	1
1344.8628424238566	117.66025270933852	0	1
1346.0791226565514	96.130766961293162	0	1
1287.8861968547574	34.557519189487721	0	1
926.61283163811254	34.557519189487714	0	1
914.12892935126024	56.1802722270413	0	1
1132.7891490711115	34.557519189487707	0	1
1121.5803867652769	162.67425859439555	0	1
899.75028473341274	102.5135960106801	0	1
903.88235531374505	55.283813158779665	0	1
878.21499411747004	259.85832018936389	0	1
884.35032455114117	236.9609552896795	0	1
882.55060788203775	284.44680770924191	0	1
1222.0365232626116	408.0095758603855	0	1
1297.7792772484388	370.05280211466709	0	1
1303.9998654902422	349.40571088840301	0	1
1308.9362236594898	328.41451125130186	0	1
1262.3194614280274	257.67160394889777	0	1
906.53465040586457	194.93714243942804	0	1
890.48565498481219	214.06359038999514	0	1
1109.578686301388	230.73928423974684	0	1
1076.2929719546396	354.96326134803479	0	1
868.27975704706807	257.19618143973793	0	1
880.55041791441033	211.4014516403692	0	1
819.74901126598252	408.41092173548702	0	1
829.76721793255854	386.92680820791963	0	1
819.74901126598229	433.37872630919162	0	1
1132.6209232542903	614.01540891751415	0	1
1213.8040992050894	589.78787505451396	0	1
1223.5155124994776	570.53465334994428	0	1
1232.021959860223	550.71954680270107	0	1
1198.3977879302752	472.95646741044357	0	1
858.91187254970157	349.39369925929998	0	1
839.78542459913456	365.44269468035236	0	1
1052.6542366223039	419.91015289809286	0	1
998.30293982168382	536.46688502569111	0	1
810.42698831360553	404.06399104329688	0	1
830.46340164675746	361.09576398816222	0	1
736.37536952019286	544.55416409057545	0	1
749.97205427956703	525.13608585317434	0	1
732.03975575562481	569.14265161045341	0	1
1008.7912096267289	801.36469448147272	0	1
1092.948097821904	791.60254185789449	0	1
1105.8552597901389	774.3281890739122	0	1
1117.6733322437963	756.29124760203729	0	1
1098.0634040648024	673.87078793724322	0	1
785.19149207649468	493.2341053289208	0	1
763.56873903894109	505.71800761577322	0	1
963.74542063219621	596.32226404542018	0	1
889.97997802790815	701.67023386718392	0	1
727.94980563607737	538.65452074525035	0	1
755.14317515482571	499.81836427044811	0	1
630.62733479544852	664.15140372747476	0	1
647.38936926146164	647.38936926146152	0	1
622.08784269662249	687.61346544260959	0	1
854.30988556764203	964.36491931371359	0	1
938.8834215448228	969.36476599713694	0	1
954.59415460183925	954.59415460183914	0	1
969.36476599713694	938.88342154482257	0	1
964.36491931371359	854.30988556764169	0	1
687.61346544260971	622.08784269662249	0	1
664.15140372747476	630.62733479544829	0	1
845.55368771489316	754.615424953353	0	1
754.615424953353	845.55368771489282	0	1
623.35423647467246	656.87830540669881	0	1
656.87830540669881	623.35423647467235	0	1
505.71800761577333	763.5687390389412	0	1
525.13608585317445	749.97205427956692	0	1
493.23410532892092	785.19149207649446	0	1
673.87078793724345	1098.0634040648026	0	1
756.2912476020374	1117.6733322437963	0	1
774.32818907391231	1105.8552597901389	0	1
791.60254185789461	1092.9480978219037	0	1
801.36469448147295	1008.7912096267286	0	1
569.14265161045364	732.0397557556247	0	1
544.55416409057557	736.37536952019275	0	1
701.67023386718415	889.97997802790815	0	1
596.3222640454203	963.74542063219599	0	1
499.81836427044823	755.14317515482571	0	1
538.65452074525047	727.94980563607726	0	1
1477.2116295183121	260.47226650039551	0	1
891.81376376348373	157.25082831866735	0	1
1409.5389311788626	513.03021498850308	0	1
850.95878902312472	309.72366979163058	0	1
1299.038105676658	749.99999999999989	0	1
784.24786208422245	452.78571428571422	0	1
1149.0666646784671	964.18141452980888	0	1
693.70796070445749	582.09009397185321	0	1
964.18141452980922	1149.0666646784669	0	1
582.09009397185343	693.70796070445726	0	1
903.71428571428567	0	0	20
451.85714285714295	782.63952919147971	0	20
901.85714285714289	0	0	20
450.92857142857156	781.03119629873731	0	20
[NumSegments] = 96
0	1	28.571428571428569	0	0	2
5	6	28.571428571428569	0	0	2
10	11	28.571428571428569	0	0	2
24	25	-1	4	0	2
27	26	-1	4	0	2
25	28	-1	2	0	2
28	27	-1	2	0	2
29	30	-1	10	0	1
32	31	-1	10	0	1
33	34	28.571428571428569	0	0	1
35	33	28.571428571428569	0	0	1
36	44	28.571428571428569	0	0	1
38	37	28.571428571428569	0	0	1
39	38	28.571428571428569	0	0	1
41	43	28.571428571428569	0	0	1
42	41	28.571428571428569	0	0	1
34	42	28.571428571428569	0	0	1
43	40	28.571428571428569	0	0	1
44	35	28.571428571428569	0	0	1
43	44	28.571428571428569	0	0	1
33	45	28.571428571428569	0	0	1
46	42	28.571428571428569	0	0	1
47	48	28.571428571428569	0	0	1
49	47	28.571428571428569	0	0	1
50	58	28.571428571428569	0	0	1
52	51	28.571428571428569	0	0	1
53	52	28.571428571428569	0	0	1
55	57	28.571428571428569	0	0	1
56	55	28.571428571428569	0	0	1
48	56	28.571428571428569	0	0	1
57	54	28.571428571428569	0	0	1
58	49	28.571428571428569	0	0	1
57	58	28.571428571428569	0	0	1
47	59	28.571428571428569	0	0	1
60	56	28.571428571428569	0	0	1
61	62	28.571428571428569	0	0	1
63	61	28.571428571428569	0	0	1
64	72	28.571428571428569	0	0	1
66	65	28.571428571428569	0	0	1
67	66	28.571428571428569	0	0	1
69	71	28.571428571428569	0	0	1
70	69	28.571428571428569	0	0	1
62	70	28.571428571428569	0	0	1
71	68	28.571428571428569	0	0	1
72	63	28.571428571428569	0	0	1
71	72	28.571428571428569	0	0	1
61	73	28.571428571428569	0	0	1
74	70	28.571428571428569	0	0	1
75	76	28.571428571428569	0	0	1
77	75	28.571428571428569	0	0	1
78	86	28.571428571428569	0	0	1
80	79	28.571428571428569	0	0	1
81	80	28.571428571428569	0	0	1
83	85	28.571428571428569	0	0	1
84	83	28.571428571428569	0	0	1
76	84	28.571428571428569	0	0	1
85	82	28.571428571428569	0	0	1
86	77	28.571428571428569	0	0	1
85	86	28.571428571428569	0	0	1
75	87	28.571428571428569	0	0	1
88	84	28.571428571428569	0	0	1
89	90	28.571428571428569	0	0	1
91	89	28.571428571428569	0	0	1
92	100	28.571428571428569	0	0	1
94	93	28.571428571428569	0	0	1
95	94	28.571428571428569	0	0	1
97	99	28.571428571428569	0	0	1
98	97	28.571428571428569	0	0	1
90	98	28.571428571428569	0	0	1
99	96	28.571428571428569	0	0	1
100	91	28.571428571428569	0	0	1
99	100	28.571428571428569	0	0	1
89	101	28.571428571428569	0	0	1
102	98	28.571428571428569	0	0	1
103	104	28.571428571428569	0	0	1
105	103	28.571428571428569	0	0	1
106	114	28.571428571428569	0	0	1
108	107	28.571428571428569	0	0	1
109	108	28.571428571428569	0	0	1
111	113	28.571428571428569	0	0	1
112	111	28.571428571428569	0	0	1
104	112	28.571428571428569	0	0	1
113	110	28.571428571428569	0	0	1
114	105	28.571428571428569	0	0	1
113	114	28.571428571428569	0	0	1
103	115	28.571428571428569	0	0	1
116	112	28.571428571428569	0	0	1
117	118	28.571428571428569	0	0	1
119	120	28.571428571428569	0	0	1
121	122	28.571428571428569	0	0	1
123	124	28.571428571428569	0	0	1
125	126	28.571428571428569	0	0	1
127	30	2.8571428571428568	7	0	20
128	32	2.8571428571428568	7	0	20
129	24	2.8571428571428568	5	0	20
130	26	2.8571428571428568	5	0	20
[NumArcSegments] = 64
2	0	37.637396279836423	1.8905347014666989	0	0	2	1.8905347014666989
2	3	48.618011409643323	8.6442569193017604	0	0	2	8.6442569193017604
3	4	125.09462337626603	10	0	0	2	10
4	1	43.924761493926894	1.6114708575251433	0	0	2	1.6114708575251433
7	5	45.133615903311863	1.3725543327876233	0	0	2	1.3725543327876233
7	8	63.768039184379163	5.6826673246446848	0	0	2	5.6826673246446848
8	9	107.69887591108599	10	0	0	2	10
9	6	53.666700807846894	1.1276663171656549	0	0	2	1.1276663171656549
12	10	51.240786319756353	1.0046559517650959	0	0	2	1.0046559517650959
12	13	77.45680452626749	6.5009456581549045	0	0	2	6.5009456581549045
13	14	98.87011526558743	10	0	0	2	10
14	11	54.913866527901519	0.82328176718088752	0	0	2	0.82328176718088752
0	15	37.637396279836423	1.8905347014666927	0	0	2	1.8905347014666927
16	15	48.618011409643287	8.6442569193009486	0	0	2	8.6442569193009486
17	16	125.09462337626621	10	0	0	2	10
1	17	43.924761493926852	1.6114708575251457	0	0	2	1.6114708575251457
5	18	45.133615903311892	1.3725543327876237	0	0	2	1.3725543327876237
19	18	63.768039184379205	5.6826673246447008	0	0	2	5.6826673246447008
20	19	107.6988759110862	10	0	0	2	10
6	20	53.666700807846922	1.1276663171656565	0	0	2	1.1276663171656565
10	21	51.24078631975631	1.0046559517650968	0	0	2	1.0046559517650968
22	21	77.456804526267518	6.5009456581551301	0	0	2	6.5009456581551301
23	22	98.870115265587387	10	0	0	2	10
11	23	54.913866527901519	0.82328176718088752	0	0	2	0.82328176718088752
24	26	59.999999999999993	0.45472840883398663	0	0	2	0.45472840883398663
25	27	59.999999999999993	0.95493284166084424	0	0	2	0.95493284166084424
29	117	9.9999999999999982	10	1	0	1	0.77000000000000002
30	46	3.4999999999999987	0.45193074233382491	0	0	1	0.45193074233382491
37	36	93.233413445002356	7.0215416069960241	0	0	1	7.0215416069960241
40	39	93.233413445002427	7.0215416069960082	0	0	1	7.0215416069960082
45	118	3.5000000000000018	0.45193074233382491	0	0	1	0.45193074233382491
46	45	2.9999999999999996	0.45193074233382491	0	0	1	0.45193074233382491
51	50	93.233413445002242	7.0215416069960366	0	0	1	7.0215416069960366
54	53	93.233413445002498	7.0215416069960082	0	0	1	7.0215416069960082
59	120	3.5000000000000018	0.45193074233382491	0	0	1	0.45193074233382491
60	59	2.9999999999999987	0.45193074233382491	0	0	1	0.45193074233382491
65	64	93.233413445002284	7.021541606996017	0	0	1	7.021541606996017
68	67	93.233413445002284	7.0215416069960019	0	0	1	7.0215416069960019
73	122	3.4999999999999982	0.45193074233382491	0	0	1	0.45193074233382491
74	73	2.9999999999999978	0.45193074233382491	0	0	1	0.45193074233382491
79	78	93.233413445002441	7.0215416069960224	0	0	1	7.0215416069960224
82	81	93.233413445002299	7.021541606996009	0	0	1	7.021541606996009
87	124	3.4999999999999982	0.45193074233382491	0	0	1	0.45193074233382491
88	87	3.000000000000004	0.45193074233382491	0	0	1	0.45193074233382491
93	92	93.233413445002327	7.0215416069960197	0	0	1	7.0215416069960197
96	95	93.233413445002412	7.0215416069959993	0	0	1	7.0215416069959993
101	126	3.4999999999999916	0.45193074233382491	0	0	1	0.45193074233382491
102	101	2.9999999999999942	0.45193074233382491	0	0	1	0.45193074233382491
107	106	93.233413445002341	7.0215416069960312	0	0	1	7.0215416069960312
110	109	93.233413445002441	7.0215416069960002	0	0	1	7.0215416069960002
115	32	3.5000000000000013	0.45193074233382491	0	0	1	0.45193074233382491
116	115	3.0000000000000044	0.45193074233382491	0	0	1	0.45193074233382491
117	119	10.000000000000004	10	1	0	1	1.3
118	60	3.5	0.45193074233382491	0	0	1	0.45193074233382491
119	121	9.9999999999999947	10	1	0	1	1.7
120	74	3.4999999999999916	0.45193074233382491	0	0	1	0.45193074233382491
121	123	9.9999999999999964	10	1	0	1	1.7
122	88	3.5000000000000013	0.45193074233382491	0	0	1	0.45193074233382491
123	125	9.9999999999999964	10	1	0	1	1.3999999999999999
124	102	3.5000000000000044	0.45193074233382491	0	0	1	0.45193074233382491
125	31	10.000000000000011	10	1	0	1	0.70999999999999996
126	116	3.500000000000008	0.45193074233382491	0	0	1	0.45193074233382491
127	128	60	2.8571428571428568	11	0	20	0.12
129	130	60	2.8571428571428568	11	0	20	0.12
[NumHoles] = 0
[NumBlockLabels] = 34
671.06843363837265	571.61434319916611	7	28.571428571428573	0	0	2	1	0
590.00463773691808	644.35601483295784	7	28.571428571428573	0	0	2	1	0
488.70504784632129	712.84855484216178	7	28.571428571428573	0	0	2	1	0
830.56675919722102	295.35513960907929	7	28.571428571428573	0	0	2	1	0
853.03099679510319	188.78099721432693	7	28.571428571428573	0	0	2	1	0
861.69748146749725	66.806708971522824	7	28.571428571428573	0	0	2	1	0
420.32448164783335	242.67445262636645	1	28.571428571428573	0	0	22	1	0
185.57625364994846	107.14249999999998	7	28.571428571428573	0	0	2	1	0
1019.6238309896441	89.205526272466571	3	28.571428571428573	1	0	1	1	0
1234.7457048467443	108.02625151141667	3	28.571428571428573	1	0	1	1	0
907.09417497365951	79.360457060596119	7	28.571428571428573	0	0	10	1	0
1419.5774447807373	124.19693341541289	1	28.571428571428573	0	0	12	1	0
988.64307683957747	264.90611404178514	3	28.571428571428573	1	0	1	1	0
1197.2285814164504	320.79643154599648	3	28.571428571428573	1	0	1	1	0
879.53257747888506	235.6700438523311	7	28.571428571428573	0	0	10	1	0
1376.4443024619222	368.81713927109206	1	28.571428571428573	0	0	12	1	0
927.62290307727608	432.55766358490581	3	28.571428571428573	3	0	1	-1	0
1123.3342733667114	523.81937433887811	3	28.571428571428573	3	0	1	-1	0
825.24682768237381	384.81891561640936	7	28.571428571428573	0	0	10	1	0
1291.4885965272263	602.23102298049662	1	28.571428571428573	0	0	12	1	0
838.41737680480958	587.06616740473828	3	28.571428571428573	3	0	1	-1	0
1015.3080218552949	710.92633050786594	3	28.571428571428573	3	0	1	-1	0
745.88637062177781	522.27525935725009	7	28.571428571428573	0	0	10	1	0
1167.2916631118135	817.34642180024048	1	28.571428571428573	0	0	12	1	0
723.73696279779233	723.73696279779222	3	28.571428571428573	2	0	1	1	0
876.43214987045383	876.43214987045371	3	28.571428571428573	2	0	1	1	0
643.86253362655407	643.86253362655395	7	28.571428571428573	0	0	10	1	0
1007.6271631908303	1007.6271631908301	1	28.571428571428573	0	0	12	1	0
587.06616740473828	838.41737680480946	3	28.571428571428573	2	0	1	1	0
710.92633050786606	1015.3080218552947	3	28.571428571428573	2	0	1	1	0
522.27525935725021	745.8863706217777	7	28.571428571428573	0	0	10	1	0
817.34642180024071	1167.2916631118132	1	28.571428571428573	0	0	12	1	0
783.44369563785108	452.3214285714285	7	2.8571428571428568	0	0	20	1	0
780.22702985236617	450.46428571428567	7	2.8571428571428568	0	0	20	1	0
