[Format]      =  4.0
[Frequency]   =  0
[Precision]   =  1e-008
[MinAngle]    =  15
[DoSmartMesh] =  1
[Depth]       =  300
[LengthUnits] =  millimeters
[ProblemType] =  planar
[Coordinates] =  cartesian
[ACSolver]    =  0
[PrevType]    =  0
[PrevSoln]    =  ""
[Comment]     =  "Add comments here."
[PointProps]   = 0
[BdryProps]   = 11
  <BeginBdry>
    <BdryName> = "A=0"
    <BdryType> = 0
    <A_0> = 0
    <A_1> = 0
    <A_2> = 0
    <Phi> = 0
    <c0> = 0
    <c0i> = 0
    <c1> = 0
    <c1i> = 0
    <Mu_ssd> = 0
    <Sigma_ssd> = 0
    <innerangle> = 0
    <outerangle> = 0
  <EndBdry>
  <BeginBdry>
    <BdryName> = "APr1"
    <BdryType> = 5
    <A_0> = 0
    <A_1> = 0
    <A_2> = 0
    <Phi> = 0
    <c0> = 0
    <c0i> = 0
    <c1> = 0
    <c1i> = 0
    <Mu_ssd> = 0
    <Sigma_ssd> = 0
    <innerangle> = 0
    <outerangle> = 0
  <EndBdry>
  <BeginBdry>
    <BdryName> = "APr2"
    <BdryType> = 5
    <A_0> = 0
    <A_1> = 0
    <A_2> = 0
    <Phi> = 0
    <c0> = 0
    <c0i> = 0
    <c1> = 0
    <c1i> = 0
    <Mu_ssd> = 0
    <Sigma_ssd> = 0
    <innerangle> = 0
    <outerangle> = 0
  <EndBdry>
  <BeginBdry>
    <BdryName> = "APr3"
    <BdryType> = 5
    <A_0> = 0
    <A_1> = 0
    <A_2> = 0
    <Phi> = 0
    <c0> = 0
    <c0i> = 0
    <c1> = 0
    <c1i> = 0
    <Mu_ssd> = 0
    <Sigma_ssd> = 0
    <innerangle> = 0
    <outerangle> = 0
  <EndBdry>
  <BeginBdry>
    <BdryName> = "APg1"
    <BdryType> = 5
    <A_0> = 0
    <A_1> = 0
    <A_2> = 0
    <Phi> = 0
    <c0> = 0
    <c0i> = 0
    <c1> = 0
    <c1i> = 0
    <Mu_ssd> = 0
    <Sigma_ssd> = 0
    <innerangle> = 0
    <outerangle> = 0
  <EndBdry>
  <BeginBdry>
    <BdryName> = "APg2"
    <BdryType> = 5
    <A_0> = 0
    <A_1> = 0
    <A_2> = 0
    <Phi> = 0
    <c0> = 0
    <c0i> = 0
    <c1> = 0
    <c1i> = 0
    <Mu_ssd> = 0
    <Sigma_ssd> = 0
    <innerangle> = 0
    <outerangle> = 0
  <EndBdry>
  <BeginBdry>
    <BdryName> = "APg3"
    <BdryType> = 5
    <A_0> = 0
    <A_1> = 0
    <A_2> = 0
    <Phi> = 0
    <c0> = 0
    <c0i> = 0
    <c1> = 0
    <c1i> = 0
    <Mu_ssd> = 0
    <Sigma_ssd> = 0
    <innerangle> = 0
    <outerangle> = 0
  <EndBdry>
  <BeginBdry>
    <BdryName> = "APs1"
    <BdryType> = 5
    <A_0> = 0
    <A_1> = 0
    <A_2> = 0
    <Phi> = 0
    <c0> = 0
    <c0i> = 0
    <c1> = 0
    <c1i> = 0
    <Mu_ssd> = 0
    <Sigma_ssd> = 0
    <innerangle> = 0
    <outerangle> = 0
  <EndBdry>
  <BeginBdry>
    <BdryName> = "APs2"
    <BdryType> = 5
    <A_0> = 0
    <A_1> = 0
    <A_2> = 0
    <Phi> = 0
    <c0> = 0
    <c0i> = 0
    <c1> = 0
    <c1i> = 0
    <Mu_ssd> = 0
    <Sigma_ssd> = 0
    <innerangle> = 0
    <outerangle> = 0
  <EndBdry>
  <BeginBdry>
    <BdryName> = "APs3"
    <BdryType> = 5
    <A_0> = 0
    <A_1> = 0
    <A_2> = 0
    <Phi> = 0
    <c0> = 0
    <c0i> = 0
    <c1> = 0
    <c1i> = 0
    <Mu_ssd> = 0
    <Sigma_ssd> = 0
    <innerangle> = 0
    <outerangle> = 0
  <EndBdry>
  <BeginBdry>
    <BdryName> = "AGap"
    <BdryType> = 7
    <A_0> = 0
    <A_1> = 0
    <A_2> = 0
    <Phi> = 0
    <c0> = 0
    <c0i> = 0
    <c1> = 0
    <c1i> = 0
    <Mu_ssd> = 0
    <Sigma_ssd> = 0
    <innerangle> = 1.1200000000000001
    <outerangle> = 0
  <EndBdry>
[BlockProps]  = 9
  <BeginBlock>
    <BlockName> = "M270-35A"
    <Mu_x> = 1
    <Mu_y> = 1
    <H_c> = 0
    <H_cAngle> = 0
    <J_re> = 0
    <J_im> = 0
    <Sigma> = 0
    <d_lam> = 0
    <Phi_h> = 0
    <Phi_hx> = 0
    <Phi_hy> = 0
    <LamType> = 0
    <LamFill> = 1
    <NStrands> = 0
    <WireD> = 0
    <BHPoints> = 200
      0	0
      0.0045422769999999999	3.2767874890000002
      0.0090353559999999996	6.114592773
      0.013222249	8.4602422570000009
      0.017196487	10.462328400000001
      0.020991169	12.199266809999999
      0.024640190999999999	13.72982376
      0.028168996000000002	15.09561901
      0.031597466999999997	16.327217480000002
      0.034941272000000002	17.447599879999999
      0.038212956999999999	18.47443998
      0.041422729999999998	19.421601849999998
      0.044579012000000001	20.300151339999999
      0.047688851999999997	21.119056130000001
      0.050758219	21.885681389999998
      0.053792226999999998	22.60614816
      0.056795300999999999	23.285597330000002
      0.059771310000000001	23.928387470000001
      0.062723663999999998	24.538245379999999
      0.065655396000000005	25.11838217
      0.068569221	25.67158405
      0.071467592999999996	26.200284
      0.074352739000000001	26.70661905
      0.077226698999999996	27.19247648
      0.080091349000000006	27.65953137
      0.082948429000000004	28.109277410000001
      0.085799557999999998	28.54305239
      0.088646256000000007	28.96205934
      0.091489953999999998	29.36738437
      0.094332005999999996	29.760011540000001
      0.097173704999999999	30.140835630000002
      0.100016285	30.510672870000001
      0.102860934	30.870270300000001
      0.105708802	31.220313650000001
      0.108561001	31.561434299999998
      0.11141862	31.894215259999999
      0.114282722	32.21919639
      0.117154355	32.536878999999999
      0.120034552	32.847729870000002
      0.12292433699999999	33.152184810000001
      0.12582473199999999	33.45065185
      0.12873675200000001	33.743513989999997
      0.13166142	34.031131799999997
      0.13459976100000001	34.313845620000002
      0.137552811	34.591977620000002
      0.14052161499999999	34.865833639999998
      0.14350723800000001	35.135704879999999
      0.14651076099999999	35.401869419999997
      0.14953328699999999	35.664593680000003
      0.15257594699999999	35.924133650000002
      0.155639899	36.180736189999998
      0.158726334	36.434640119999997
      0.161836481	36.686077320000003
      0.16497160599999999	36.93527375
      0.16813302299999999	37.182450420000002
      0.17132209400000001	37.427824389999998
      0.17454023399999999	37.671609650000001
      0.17778891699999999	37.914018050000003
      0.18106968000000001	38.155260249999998
      0.18438413100000001	38.395546590000002
      0.18773395400000001	38.635088090000004
      0.191120915	38.87409736
      0.19454686800000001	39.112789630000002
      0.19801376800000001	39.351383830000003
      0.20152367299999999	39.590103640000002
      0.20507876	39.829178749999997
      0.208681327	40.068846100000002
      0.21233381500000001	40.309351300000003
      0.216038808	40.550950149999998
      0.21979905799999999	40.793910310000001
      0.22361749	41.038513199999997
      0.227497227	41.285056060000002
      0.2314416	41.53385428
      0.23545417299999999	41.785244059999997
      0.23953876299999999	42.039585369999998
      0.24369946200000001	42.297265359999997
      0.247940667	42.558702250000003
      0.25226710400000002	42.824349750000003
      0.25668386300000001	43.0947022
      0.26119642799999998	43.370300520000001
      0.26581071499999998	43.651739030000002
      0.27054201700000002	43.94020278
      0.275438138	44.23873004
      0.28051031599999998	44.548036490000001
      0.28576849199999999	44.868763260000001
      0.29122336399999998	45.201605100000002
      0.296886504	45.547319020000003
      0.30277045699999999	45.906731970000003
      0.30888884599999999	46.280749559999997
      0.31525650100000002	46.670366299999998
      0.321889598	47.076677459999999
      0.328805825	47.50089294
      0.33602457000000002	47.944353649999996
      0.34356714500000002	48.408550759999997
      0.351457032	48.895148689999999
      0.35972019	49.406012390000001
      0.36838539799999998	49.943240269999997
      0.37748466600000002	50.509203810000002
      0.38705371900000002	51.106595769999998
      0.39713256899999999	51.738489119999997
      0.40776619800000002	52.408409570000003
      0.41900536300000002	53.120425429999997
      0.43090757000000002	53.879259759999997
      0.44353822799999998	54.690431349999997
      0.45697202599999998	55.560433060000001
      0.47129457299999999	56.49695913
      0.486604327	57.509196449999997
      0.503014823	58.60819978
      0.520657166	59.807376320000003
      0.53968265500000001	61.123111049999999
      0.56026517099999995	62.575567960000001
      0.58260257699999995	64.189698669999999
      0.60691558199999995	65.996464399999994
      0.63344113800000001	68.034201780000004
      0.662415215	70.349880479999996
      0.69403682899999997	72.999622560000006
      0.72840307800000004	76.047204840000006
      0.76540934699999996	79.558509650000005
      0.80463064699999998	83.589963030000007
      0.84524547999999999	88.171938179999998
      0.88609953900000005	93.294734669999997
      0.92594964300000004	98.90894376
      0.963771241	104.9435902
      0.99893980100000002	111.3300564
      1.0312218310000001	118.0174305
      1.0606584889999999	124.9760964
      1.0874410889999999	132.19454709999999
      1.1118223309999999	139.6744898
      1.1340651580000001	147.42664859999999
      1.1544176930000001	155.46782519999999
      1.173103241	163.8190534
      1.1903180360000001	172.50453999999999
      1.2062325739999999	181.55112829999999
      1.220994358	190.98810510000001
      1.234730984	200.84723579999999
      1.2475531	211.16296399999999
      1.2595570490000001	221.97273730000001
      1.270827143	233.31744900000001
      1.281437594	245.2419931
      1.291454146	257.79594609999998
      1.3009354369999999	271.03439809999998
      1.309934159	285.01896390000002
      1.318498043	299.81902289999999
      1.326670706	315.51324579999999
      1.3344924010000001	332.19149570000002
      1.3420006879999999	349.95721329999998
      1.3492310569999999	368.93044570000001
      1.356217531	389.25173360000002
      1.362993272	411.08716509999999
      1.3695912379999999	434.63503709999998
      1.3760449050000001	460.1347695
      1.382389146	487.87903890000001
      1.3886613240000001	518.23060969999995
      1.394902732	551.64618570000005
      1.401160583	588.71104339999999
      1.4074908660000001	630.19074279999995
      1.4139626249999999	677.11087850000001
      1.420664664	730.8848299
      1.4277165590000001	793.52783980000004
      1.435287779	868.03580320000003
      1.4436331710000001	959.10175079999999
      1.453164339	1074.5891859999999
      1.464608755	1228.9034079999999
      1.479413587	1451.8548430000001
      1.5007295060000001	1812.597843
      1.531321148	2396.2922779999999
      1.5749716949999999	3340.7297119999998
      1.6351726849999999	4868.8615820000005
      1.6746062129999999	6056.7860730000002
      1.7053540309999999	7126.7301200000002
      1.7307497590000001	8135.9466300000004
      1.752580204	9119.3875740000003
      1.771845345	10098.25848
      1.789165838	11087.22133
      1.804957089	12097.58993
      1.819514077	13138.977849999999
      1.8330565510000001	14220.25051
      1.845754994	15350.15127
      1.8577465099999999	16537.778849999999
      1.869145125	17793.012470000001
      1.8800488470000001	19126.948680000001
      1.8905448170000001	20552.403480000001
      1.9007133519999999	22084.53774
      1.9106314310000001	23741.68173
      1.920376064	25546.46932
      1.930027954	27527.455720000002
      1.9396760099999999	29721.505959999999
      1.9494234969999999	32177.45292
      1.959397184	34961.935420000002
      1.969762051	38169.180130000001
      1.980746793	41938.394229999998
      1.9926918389999999	46487.096960000003
      2.0061495709999999	52181.595710000001
      2.022124024	59707.652569999998
      2.042772002	70576.241299999994
      2.0725625070000002	88161.987269999998
      2.1158769670000002	116616.322
      2.1803765140000002	162656.4026
      2.2792825830000001	237150.818
      2.3747656959999999	310949.48619999998
  <EndBlock>
  <BeginBlock>
    <BlockName> = "ShaftAir"
    <Mu_x> = 1
    <Mu_y> = 1
    <H_c> = 0
    <H_cAngle> = 0
    <J_re> = 0
    <J_im> = 0
    <Sigma> = 0
    <d_lam> = 0
    <Phi_h> = 0
    <Phi_hx> = 0
    <Phi_hy> = 0
    <LamType> = 0
    <LamFill> = 1
    <NStrands> = 0
    <WireD> = 0
    <BHPoints> = 3
      -100	-7.9577471545947675e-011
      0	0
      100	7.9577471545947675e-011
  <EndBlock>
  <BeginBlock>
    <BlockName> = "Copper"
    <Mu_x> = 1
    <Mu_y> = 1
    <H_c> = 0
    <H_cAngle> = 0
    <J_re> = 0
    <J_im> = 0
    <Sigma> = 58
    <d_lam> = 0
    <Phi_h> = 0
    <Phi_hx> = 0
    <Phi_hy> = 0
    <LamType> = 0
    <LamFill> = 1
    <NStrands> = 0
    <WireD> = 0
    <BHPoints> = 0
  <EndBlock>
  <BeginBlock>
    <BlockName> = "Aluminium"
    <Mu_x> = 1
    <Mu_y> = 1
    <H_c> = 0
    <H_cAngle> = 0
    <J_re> = 0
    <J_im> = 0
    <Sigma> = 29
    <d_lam> = 0
    <Phi_h> = 0
    <Phi_hx> = 0
    <Phi_hy> = 0
    <LamType> = 0
    <LamFill> = 1
    <NStrands> = 0
    <WireD> = 0
    <BHPoints> = 0
  <EndBlock>
  <BeginBlock>
    <BlockName> = "BMH-38EH"
    <Mu_x> = 1.05
    <Mu_y> = 1.05
    <H_c> = 954929.65855137201
    <H_cAngle> = 0
    <J_re> = 0
    <J_im> = 0
    <Sigma> = 0.66666666666666663
    <d_lam> = 0
    <Phi_h> = 0
    <Phi_hx> = 0
    <Phi_hy> = 0
    <LamType> = 0
    <LamFill> = 1
    <NStrands> = 0
    <WireD> = 0
    <BHPoints> = 0
  <EndBlock>
  <BeginBlock>
    <BlockName> = "DW235"
    <Mu_x> = 1
    <Mu_y> = 1
    <H_c> = 0
    <H_cAngle> = 0
    <J_re> = 0
    <J_im> = 0
    <Sigma> = 0
    <d_lam> = 0
    <Phi_h> = 0
    <Phi_hx> = 0
    <Phi_hy> = 0
    <LamType> = 0
    <LamFill> = 1
    <NStrands> = 0
    <WireD> = 0
    <BHPoints> = 0
  <EndBlock>
  <BeginBlock>
    <BlockName> = "Air"
    <Mu_x> = 1
    <Mu_y> = 1
    <H_c> = 0
    <H_cAngle> = 0
    <J_re> = 0
    <J_im> = 0
    <Sigma> = 0
    <d_lam> = 0
    <Phi_h> = 0
    <Phi_hx> = 0
    <Phi_hy> = 0
    <LamType> = 0
    <LamFill> = 1
    <NStrands> = 0
    <WireD> = 0
    <BHPoints> = 0
  <EndBlock>
  <BeginBlock>
    <BlockName> = "BMH-38EH_1"
    <Mu_x> = 1.05
    <Mu_y> = 1.05
    <H_c> = 954929.65855137201
    <H_cAngle> = 0
    <J_re> = 0
    <J_im> = 0
    <Sigma> = 0.66666666666666663
    <d_lam> = 0
    <Phi_h> = 0
    <Phi_hx> = 0
    <Phi_hy> = 0
    <LamType> = 0
    <LamFill> = 1
    <NStrands> = 0
    <WireD> = 0
    <BHPoints> = 0
  <EndBlock>
  <BeginBlock>
    <BlockName> = "BMH-38EH_2"
    <Mu_x> = 1.05
    <Mu_y> = 1.05
    <H_c> = 954929.65855137201
    <H_cAngle> = 0
    <J_re> = 0
    <J_im> = 0
    <Sigma> = 0.66666666666666663
    <d_lam> = 0
    <Phi_h> = 0
    <Phi_hx> = 0
    <Phi_hy> = 0
    <LamType> = 0
    <LamFill> = 1
    <NStrands> = 0
    <WireD> = 0
    <BHPoints> = 0
  <EndBlock>
[CircuitProps]  = 6
  <BeginCircuit>
    <CircuitName> = "fase1"
    <TotalAmps_re> = -203.04751431094471
    <TotalAmps_im> = -0
    <CircuitType> = 1
  <EndCircuit>
  <BeginCircuit>
    <CircuitName> = "fase2"
    <TotalAmps_re> = 462.05801238253969
    <TotalAmps_im> = 0
    <CircuitType> = 1
  <EndCircuit>
  <BeginCircuit>
    <CircuitName> = "fase3"
    <TotalAmps_re> = -259.01049807159507
    <TotalAmps_im> = -0
    <CircuitType> = 1
  <EndCircuit>
  <BeginCircuit>
    <CircuitName> = "fase1n"
    <TotalAmps_re> = 203.04751431094471
    <TotalAmps_im> = 0
    <CircuitType> = 1
  <EndCircuit>
  <BeginCircuit>
    <CircuitName> = "fase2n"
    <TotalAmps_re> = -462.05801238253969
    <TotalAmps_im> = -0
    <CircuitType> = 1
  <EndCircuit>
  <BeginCircuit>
    <CircuitName> = "fase3n"
    <TotalAmps_re> = 259.01049807159507
    <TotalAmps_im> = 0
    <CircuitType> = 1
  <EndCircuit>
[NumPoints] = 67
683.66248729016047	21.484959209439751	0	2
675.54649401999063	21.229903845725349	0	2
682.65028224493778	42.94871535805035	0	20
674.54630521010029	42.438856339472323	0	2
682.78184065029689	40.803897830876764	0	2
674.67630184023767	40.319500681188572	0	2
684.00000000000011	0	0	20
675.88	0	0	2
683.99662459807098	2.1488458403416182	0	2
675.87666466863186	2.1233361499562733	0	2
570.77999999999997	0	0	2
569.65369605228886	35.839572736941484	0	2
0	0	0	2
760	0	0	1
688	0	0	20
758.50031360548644	47.720794842278167	0	1
686.64238915865087	43.199877436167604	0	20
694.69624251507503	9.0763844724480567	0	1
694.71510405942422	7.2753055016222685	0	1
694.72260567285548	9.1790621928465264	0	1
748.20198843033654	10.299295567347517	0	1
749.68662174032625	8.8629636882689127	0	1
749.69889128009913	7.8511154233141207	0	1
749.70781498246197	6.8392321195510837	0	1
748.2535875423946	5.3721234376385461	0	1
694.76247329961097	5.3721234376385469	0	1
694.73396560377341	5.4742265307964804	0	1
722.22789406898778	5.3721234376385461	0	1
722.18200282158705	9.7542545668718876	0	1
687.94105737091695	9.0056417530849746	0	1
687.97878045961534	5.4034838114333965	0	1
694.35380269448399	23.623014273485666	0	1
694.41037905423491	21.822725315422701	0	1
694.37800975045491	23.726221583282978	0	1
747.82220319784608	25.966196960902842	0	1
749.33659116852073	24.561271907291548	0	1
749.37004856860358	23.549902511235906	0	1
749.40016159887148	22.538428014124708	0	1
747.97697790094423	21.041186051734524	0	1
694.49759514346295	19.920952677233533	0	1
694.46695541398583	20.02243635735973	0	1
721.95699229219474	20.496145051258896	0	1
721.81933867941052	24.876354032948164	0	1
687.60158059779098	23.410817145491201	0	1
687.71473331729294	19.810239229365266	0	1
693.70679634742328	38.159282239715004	0	1
693.80106270631472	36.360572960651965	0	1
693.72883668357019	38.26297386877404	0	1
747.11439843127823	41.621708722280275	0	1
748.65787680202266	40.248806740698015	0	1
748.71250738689434	39.238359833584703	0	1
748.76379653649678	38.227737809269328	0	1
747.37228083611615	36.701019306210505	0	1
693.92808738872475	34.461043928590641	0	1
693.89532906520617	34.561863681588932	0	1
721.36941631768048	35.611176378255834	0	1
721.14006071893698	39.987541907974396	0	1
686.96049904597032	37.805723779762673	0	1
687.14903176375321	34.2083052216366	0	1
759.83331944088263	15.916239111351288	0	1
687.84911023069367	14.408384879749587	0	1
759.3333508751324	31.825496834191707	0	1
687.39650710801459	28.810449765689334	0	1
686.66666666666663	0	0	20
685.31168685407977	43.11615674346185	0	20
685.33333333333337	0	0	20
683.98098454950878	43.032436050756104	0	20
[NumSegments] = 56
0	1	0.67555555555555569	0	0	2
3	2	-1	4	0	2
5	4	0.67555555555555569	0	0	2
7	6	-1	4	0	2
9	8	0.67555555555555569	0	0	2
7	10	-1	3	0	2
11	3	-1	3	0	2
10	12	-1	2	0	2
12	11	-1	2	0	2
13	14	-1	10	0	1
16	15	-1	10	0	1
17	18	0.67555555555555569	0	0	1
19	17	0.67555555555555569	0	0	1
20	28	0.67555555555555569	0	0	1
22	21	0.67555555555555569	0	0	1
23	22	0.67555555555555569	0	0	1
25	27	0.67555555555555569	0	0	1
26	25	0.67555555555555569	0	0	1
18	26	0.67555555555555569	0	0	1
27	24	0.67555555555555569	0	0	1
28	19	0.67555555555555569	0	0	1
27	28	0.67555555555555569	0	0	1
17	29	0.67555555555555569	0	0	1
30	26	0.67555555555555569	0	0	1
31	32	0.67555555555555569	0	0	1
33	31	0.67555555555555569	0	0	1
34	42	0.67555555555555569	0	0	1
36	35	0.67555555555555569	0	0	1
37	36	0.67555555555555569	0	0	1
39	41	0.67555555555555569	0	0	1
40	39	0.67555555555555569	0	0	1
32	40	0.67555555555555569	0	0	1
41	38	0.67555555555555569	0	0	1
42	33	0.67555555555555569	0	0	1
41	42	0.67555555555555569	0	0	1
31	43	0.67555555555555569	0	0	1
44	40	0.67555555555555569	0	0	1
45	46	0.67555555555555569	0	0	1
47	45	0.67555555555555569	0	0	1
48	56	0.67555555555555569	0	0	1
50	49	0.67555555555555569	0	0	1
51	50	0.67555555555555569	0	0	1
53	55	0.67555555555555569	0	0	1
54	53	0.67555555555555569	0	0	1
46	54	0.67555555555555569	0	0	1
55	52	0.67555555555555569	0	0	1
56	47	0.67555555555555569	0	0	1
55	56	0.67555555555555569	0	0	1
45	57	0.67555555555555569	0	0	1
58	54	0.67555555555555569	0	0	1
59	60	0.67555555555555569	0	0	1
61	62	0.67555555555555569	0	0	1
63	14	0.067555555555555563	7	0	20
64	16	0.067555555555555563	7	0	20
65	6	0.067555555555555563	5	0	20
66	2	0.067555555555555563	5	0	20
[NumArcSegments] = 29
0	4	1.6200000000000008	0.014147106052612156	0	0	2	0.014147106052612156
1	5	1.6200000000000012	0.014317068917540449	0	0	2	0.014317068917540449
4	2	0.17999999999999983	0.014147106052612921	0	0	2	0.014147106052612921
5	3	0.17999999999999855	0.014317068917540449	0	0	2	0.014317068917540449
6	8	0.17999999999999977	0.014147106052612922	0	0	2	0.014147106052612922
7	9	0.17999999999999947	0.014317068917540449	0	0	2	0.014317068917540449
8	0	1.6199999999999999	0.014147106052612157	0	0	2	0.014147106052612157
9	1	1.6199999999999999	0.014317068917540449	0	0	2	0.014317068917540449
10	11	3.5999999999999996	0.016953327972226147	0	0	2	0.016953327972226147
13	59	1.1999999999999995	0.67555555555555569	1	0	1	0.067000000000000004
14	30	0.44999999999999996	0.014064855436027963	0	0	1	0.014064855436027963
21	20	90.505272915362866	6.6538727059102127	0	0	1	6.6538727059102127
24	23	90.505272915355391	6.6538727059105982	0	0	1	6.6538727059105982
29	60	0.44999999999999996	0.014064855436027963	0	0	1	0.014064855436027963
30	29	0.30000000000000016	0.014064855436027963	0	0	1	0.014064855436027963
35	34	90.505272915362923	6.6538727059097251	0	0	1	6.6538727059097251
38	37	90.505272915352307	6.6538727059105955	0	0	1	6.6538727059105955
43	62	0.44999999999999957	0.014064855436027963	0	0	1	0.014064855436027963
44	43	0.29999999999999999	0.014064855436027963	0	0	1	0.014064855436027963
49	48	90.505272915365708	6.6538727059107217	0	0	1	6.6538727059107217
52	51	90.505272915357025	6.6538727059105911	0	0	1	6.6538727059105911
57	16	0.45000000000000112	0.014064855436027963	0	0	1	0.014064855436027963
58	57	0.30000000000000016	0.014064855436027963	0	0	1	0.014064855436027963
59	61	1.1999999999999988	0.67555555555555569	1	0	1	0.080000000000000002
60	44	0.45000000000000012	0.014064855436027963	0	0	1	0.014064855436027963
61	15	1.2000000000000002	0.67555555555555569	1	0	1	0.067000000000000004
62	58	0.45000000000000073	0.014064855436027963	0	0	1	0.014064855436027963
63	64	3.6000000000000001	0.067555555555555563	11	0	20	0.0085000000000000006
65	66	3.6000000000000001	0.067555555555555563	11	0	20	0.0085000000000000006
[NumHoles] = 0
[NumBlockLabels] = 20
679.23465556533904	30.962659430923868	8	0.67555555555555569	0	-178.20000000000007	201	1	0
679.83850260065617	11.747935209978142	9	0.67555555555555569	0	-178.20000000000002	202	1	0
678.66368248639333	41.627742552397002	7	0.67555555555555569	0	0	2	1	0
679.93832231667579	1.0680454975744738	7	0.67555555555555569	0	0	2	1	0
623.02242427277145	19.579268456169707	1	0.67555555555555569	0	0	22	1	0
285.24917726277613	8.9643165333070325	7	0.67555555555555569	0	0	2	1	0
708.46002625235587	7.4192472519387431	3	0.67555555555555569	1	0	1	1	0
735.94987063821895	7.7071307525716914	3	0.67555555555555569	1	0	1	1	0
691.33869029144842	7.2399464867996874	7	0.67555555555555569	0	0	10	1	0
754.8286099989441	7.9048356758304612	1	0.67555555555555569	0	0	12	1	0
708.14927227001886	22.254487428763113	3	0.67555555555555569	3	0	1	-1	0
735.62705870158629	23.118011655443944	3	0.67555555555555569	3	0	1	-1	0
691.03544629292924	21.716663780587485	7	0.67555555555555569	0	0	10	1	0
754.49751722327983	23.711039705306703	1	0.67555555555555569	0	0	12	1	0
707.52790061231178	37.079966051883545	3	0.67555555555555569	2	0	1	1	0
734.98157642430567	38.518752234346685	3	0.67555555555555569	2	0	1	1	0
690.4290913087309	36.183855427898663	7	0.67555555555555569	0	0	10	1	0
753.8354769001852	39.506843289111004	1	0.67555555555555569	0	0	12	1	0
686.9941758247129	21.58966173970018	7	0.067555555555555563	0	0	20	1	0
684.32882499707091	21.505899715491836	7	0.067555555555555563	0	0	20	1	0
