[Format]      =  4.0
[Frequency]   =  0
[Precision]   =  1e-008
[MinAngle]    =  15
[DoSmartMesh] =  1
[Depth]       =  300
[LengthUnits] =  millimeters
[ProblemType] =  planar
[Coordinates] =  cartesian
[ACSolver]    =  0
[PrevType]    =  0
[PrevSoln]    =  ""
[Comment]     =  "Add comments here."
[PointProps]   = 0
[BdryProps]   = 11
  <BeginBdry>
    <BdryName> = "A=0"
    <BdryType> = 0
    <A_0> = 0
    <A_1> = 0
    <A_2> = 0
    <Phi> = 0
    <c0> = 0
    <c0i> = 0
    <c1> = 0
    <c1i> = 0
    <Mu_ssd> = 0
    <Sigma_ssd> = 0
    <innerangle> = 0
    <outerangle> = 0
  <EndBdry>
  <BeginBdry>
    <BdryName> = "APr1"
    <BdryType> = 5
    <A_0> = 0
    <A_1> = 0
    <A_2> = 0
    <Phi> = 0
    <c0> = 0
    <c0i> = 0
    <c1> = 0
    <c1i> = 0
    <Mu_ssd> = 0
    <Sigma_ssd> = 0
    <innerangle> = 0
    <outerangle> = 0
  <EndBdry>
  <BeginBdry>
    <BdryName> = "APr2"
    <BdryType> = 5
    <A_0> = 0
    <A_1> = 0
    <A_2> = 0
    <Phi> = 0
    <c0> = 0
    <c0i> = 0
    <c1> = 0
    <c1i> = 0
    <Mu_ssd> = 0
    <Sigma_ssd> = 0
    <innerangle> = 0
    <outerangle> = 0
  <EndBdry>
  <BeginBdry>
    <BdryName> = "APr3"
    <BdryType> = 5
    <A_0> = 0
    <A_1> = 0
    <A_2> = 0
    <Phi> = 0
    <c0> = 0
    <c0i> = 0
    <c1> = 0
    <c1i> = 0
    <Mu_ssd> = 0
    <Sigma_ssd> = 0
    <innerangle> = 0
    <outerangle> = 0
  <EndBdry>
  <BeginBdry>
    <BdryName> = "APg1"
    <BdryType> = 5
    <A_0> = 0
    <A_1> = 0
    <A_2> = 0
    <Phi> = 0
    <c0> = 0
    <c0i> = 0
    <c1> = 0
    <c1i> = 0
    <Mu_ssd> = 0
    <Sigma_ssd> = 0
    <innerangle> = 0
    <outerangle> = 0
  <EndBdry>
  <BeginBdry>
    <BdryName> = "APg2"
    <BdryType> = 5
    <A_0> = 0
    <A_1> = 0
    <A_2> = 0
    <Phi> = 0
    <c0> = 0
    <c0i> = 0
    <c1> = 0
    <c1i> = 0
    <Mu_ssd> = 0
    <Sigma_ssd> = 0
    <innerangle> = 0
    <outerangle> = 0
  <EndBdry>
  <BeginBdry>
    <BdryName> = "APg3"
    <BdryType> = 5
    <A_0> = 0
    <A_1> = 0
    <A_2> = 0
    <Phi> = 0
    <c0> = 0
    <c0i> = 0
    <c1> = 0
    <c1i> = 0
    <Mu_ssd> = 0
    <Sigma_ssd> = 0
    <innerangle> = 0
    <outerangle> = 0
  <EndBdry>
  <BeginBdry>
    <BdryName> = "APs1"
    <BdryType> = 5
    <A_0> = 0
    <A_1> = 0
    <A_2> = 0
    <Phi> = 0
    <c0> = 0
    <c0i> = 0
    <c1> = 0
    <c1i> = 0
    <Mu_ssd> = 0
    <Sigma_ssd> = 0
    <innerangle> = 0
    <outerangle> = 0
  <EndBdry>
  <BeginBdry>
    <BdryName> = "APs2"
    <BdryType> = 5
    <A_0> = 0
    <A_1> = 0
    <A_2> = 0
    <Phi> = 0
    <c0> = 0
    <c0i> = 0
    <c1> = 0
    <c1i> = 0
    <Mu_ssd> = 0
    <Sigma_ssd> = 0
    <innerangle> = 0
    <outerangle> = 0
  <EndBdry>
  <BeginBdry>
    <BdryName> = "APs3"
    <BdryType> = 5
    <A_0> = 0
    <A_1> = 0
    <A_2> = 0
    <Phi> = 0
    <c0> = 0
    <c0i> = 0
    <c1> = 0
    <c1i> = 0
    <Mu_ssd> = 0
    <Sigma_ssd> = 0
    <innerangle> = 0
    <outerangle> = 0
  <EndBdry>
  <BeginBdry>
    <BdryName> = "AGap"
    <BdryType> = 7
    <A_0> = 0
    <A_1> = 0
    <A_2> = 0
    <Phi> = 0
    <c0> = 0
    <c0i> = 0
    <c1> = 0
    <c1i> = 0
    <Mu_ssd> = 0
    <Sigma_ssd> = 0
    <innerangle> = 1.3999999999999999
    <outerangle> = 0
  <EndBdry>
[BlockProps]  = 9
  <BeginBlock>
    <BlockName> = "M270-35A"
    <Mu_x> = 1
    <Mu_y> = 1
    <H_c> = 0
    <H_cAngle> = 0
    <J_re> = 0
    <J_im> = 0
    <Sigma> = 0
    <d_lam> = 0
    <Phi_h> = 0
    <Phi_hx> = 0
    <Phi_hy> = 0
    <LamType> = 0
    <LamFill> = 1
    <NStrands> = 0
    <WireD> = 0
    <BHPoints> = 200
      0	0
      0.0045422769999999999	3.2767874890000002
      0.0090353559999999996	6.114592773
      0.013222249	8.4602422570000009
      0.017196487	10.462328400000001
      0.020991169	12.199266809999999
      0.024640190999999999	13.72982376
      0.028168996000000002	15.09561901
      0.031597466999999997	16.327217480000002
      0.034941272000000002	17.447599879999999
      0.038212956999999999	18.47443998
      0.041422729999999998	19.421601849999998
      0.044579012000000001	20.300151339999999
      0.047688851999999997	21.119056130000001
      0.050758219	21.885681389999998
      0.053792226999999998	22.60614816
      0.056795300999999999	23.285597330000002
      0.059771310000000001	23.928387470000001
      0.062723663999999998	24.538245379999999
      0.065655396000000005	25.11838217
      0.068569221	25.67158405
      0.071467592999999996	26.200284
      0.074352739000000001	26.70661905
      0.077226698999999996	27.19247648
      0.080091349000000006	27.65953137
      0.082948429000000004	28.109277410000001
      0.085799557999999998	28.54305239
      0.088646256000000007	28.96205934
      0.091489953999999998	29.36738437
      0.094332005999999996	29.760011540000001
      0.097173704999999999	30.140835630000002
      0.100016285	30.510672870000001
      0.102860934	30.870270300000001
      0.105708802	31.220313650000001
      0.108561001	31.561434299999998
      0.11141862	31.894215259999999
      0.114282722	32.21919639
      0.117154355	32.536878999999999
      0.120034552	32.847729870000002
      0.12292433699999999	33.152184810000001
      0.12582473199999999	33.45065185
      0.12873675200000001	33.743513989999997
      0.13166142	34.031131799999997
      0.13459976100000001	34.313845620000002
      0.137552811	34.591977620000002
      0.14052161499999999	34.865833639999998
      0.14350723800000001	35.135704879999999
      0.14651076099999999	35.401869419999997
      0.14953328699999999	35.664593680000003
      0.15257594699999999	35.924133650000002
      0.155639899	36.180736189999998
      0.158726334	36.434640119999997
      0.161836481	36.686077320000003
      0.16497160599999999	36.93527375
      0.16813302299999999	37.182450420000002
      0.17132209400000001	37.427824389999998
      0.17454023399999999	37.671609650000001
      0.17778891699999999	37.914018050000003
      0.18106968000000001	38.155260249999998
      0.18438413100000001	38.395546590000002
      0.18773395400000001	38.635088090000004
      0.191120915	38.87409736
      0.19454686800000001	39.112789630000002
      0.19801376800000001	39.351383830000003
      0.20152367299999999	39.590103640000002
      0.20507876	39.829178749999997
      0.208681327	40.068846100000002
      0.21233381500000001	40.309351300000003
      0.216038808	40.550950149999998
      0.21979905799999999	40.793910310000001
      0.22361749	41.038513199999997
      0.227497227	41.285056060000002
      0.2314416	41.53385428
      0.23545417299999999	41.785244059999997
      0.23953876299999999	42.039585369999998
      0.24369946200000001	42.297265359999997
      0.247940667	42.558702250000003
      0.25226710400000002	42.824349750000003
      0.25668386300000001	43.0947022
      0.26119642799999998	43.370300520000001
      0.26581071499999998	43.651739030000002
      0.27054201700000002	43.94020278
      0.275438138	44.23873004
      0.28051031599999998	44.548036490000001
      0.28576849199999999	44.868763260000001
      0.29122336399999998	45.201605100000002
      0.296886504	45.547319020000003
      0.30277045699999999	45.906731970000003
      0.30888884599999999	46.280749559999997
      0.31525650100000002	46.670366299999998
      0.321889598	47.076677459999999
      0.328805825	47.50089294
      0.33602457000000002	47.944353649999996
      0.34356714500000002	48.408550759999997
      0.351457032	48.895148689999999
      0.35972019	49.406012390000001
      0.36838539799999998	49.943240269999997
      0.37748466600000002	50.509203810000002
      0.38705371900000002	51.106595769999998
      0.39713256899999999	51.738489119999997
      0.40776619800000002	52.408409570000003
      0.41900536300000002	53.120425429999997
      0.43090757000000002	53.879259759999997
      0.44353822799999998	54.690431349999997
      0.45697202599999998	55.560433060000001
      0.47129457299999999	56.49695913
      0.486604327	57.509196449999997
      0.503014823	58.60819978
      0.520657166	59.807376320000003
      0.53968265500000001	61.123111049999999
      0.56026517099999995	62.575567960000001
      0.58260257699999995	64.189698669999999
      0.60691558199999995	65.996464399999994
      0.63344113800000001	68.034201780000004
      0.662415215	70.349880479999996
      0.69403682899999997	72.999622560000006
      0.72840307800000004	76.047204840000006
      0.76540934699999996	79.558509650000005
      0.80463064699999998	83.589963030000007
      0.84524547999999999	88.171938179999998
      0.88609953900000005	93.294734669999997
      0.92594964300000004	98.90894376
      0.963771241	104.9435902
      0.99893980100000002	111.3300564
      1.0312218310000001	118.0174305
      1.0606584889999999	124.9760964
      1.0874410889999999	132.19454709999999
      1.1118223309999999	139.6744898
      1.1340651580000001	147.42664859999999
      1.1544176930000001	155.46782519999999
      1.173103241	163.8190534
      1.1903180360000001	172.50453999999999
      1.2062325739999999	181.55112829999999
      1.220994358	190.98810510000001
      1.234730984	200.84723579999999
      1.2475531	211.16296399999999
      1.2595570490000001	221.97273730000001
      1.270827143	233.31744900000001
      1.281437594	245.2419931
      1.291454146	257.79594609999998
      1.3009354369999999	271.03439809999998
      1.309934159	285.01896390000002
      1.318498043	299.81902289999999
      1.326670706	315.51324579999999
      1.3344924010000001	332.19149570000002
      1.3420006879999999	349.95721329999998
      1.3492310569999999	368.93044570000001
      1.356217531	389.25173360000002
      1.362993272	411.08716509999999
      1.3695912379999999	434.63503709999998
      1.3760449050000001	460.1347695
      1.382389146	487.87903890000001
      1.3886613240000001	518.23060969999995
      1.394902732	551.64618570000005
      1.401160583	588.71104339999999
      1.4074908660000001	630.19074279999995
      1.4139626249999999	677.11087850000001
      1.420664664	730.8848299
      1.4277165590000001	793.52783980000004
      1.435287779	868.03580320000003
      1.4436331710000001	959.10175079999999
      1.453164339	1074.5891859999999
      1.464608755	1228.9034079999999
      1.479413587	1451.8548430000001
      1.5007295060000001	1812.597843
      1.531321148	2396.2922779999999
      1.5749716949999999	3340.7297119999998
      1.6351726849999999	4868.8615820000005
      1.6746062129999999	6056.7860730000002
      1.7053540309999999	7126.7301200000002
      1.7307497590000001	8135.9466300000004
      1.752580204	9119.3875740000003
      1.771845345	10098.25848
      1.789165838	11087.22133
      1.804957089	12097.58993
      1.819514077	13138.977849999999
      1.8330565510000001	14220.25051
      1.845754994	15350.15127
      1.8577465099999999	16537.778849999999
      1.869145125	17793.012470000001
      1.8800488470000001	19126.948680000001
      1.8905448170000001	20552.403480000001
      1.9007133519999999	22084.53774
      1.9106314310000001	23741.68173
      1.920376064	25546.46932
      1.930027954	27527.455720000002
      1.9396760099999999	29721.505959999999
      1.9494234969999999	32177.45292
      1.959397184	34961.935420000002
      1.969762051	38169.180130000001
      1.980746793	41938.394229999998
      1.9926918389999999	46487.096960000003
      2.0061495709999999	52181.595710000001
      2.022124024	59707.652569999998
      2.042772002	70576.241299999994
      2.0725625070000002	88161.987269999998
      2.1158769670000002	116616.322
      2.1803765140000002	162656.4026
      2.2792825830000001	237150.818
      2.3747656959999999	310949.48619999998
  <EndBlock>
  <BeginBlock>
    <BlockName> = "ShaftAir"
    <Mu_x> = 1
    <Mu_y> = 1
    <H_c> = 0
    <H_cAngle> = 0
    <J_re> = 0
    <J_im> = 0
    <Sigma> = 0
    <d_lam> = 0
    <Phi_h> = 0
    <Phi_hx> = 0
    <Phi_hy> = 0
    <LamType> = 0
    <LamFill> = 1
    <NStrands> = 0
    <WireD> = 0
    <BHPoints> = 3
      -100	-7.9577471545947675e-011
      0	0
      100	7.9577471545947675e-011
  <EndBlock>
  <BeginBlock>
    <BlockName> = "Copper"
    <Mu_x> = 1
    <Mu_y> = 1
    <H_c> = 0
    <H_cAngle> = 0
    <J_re> = 0
    <J_im> = 0
    <Sigma> = 58
    <d_lam> = 0
    <Phi_h> = 0
    <Phi_hx> = 0
    <Phi_hy> = 0
    <LamType> = 0
    <LamFill> = 1
    <NStrands> = 0
    <WireD> = 0
    <BHPoints> = 0
  <EndBlock>
  <BeginBlock>
    <BlockName> = "Aluminium"
    <Mu_x> = 1
    <Mu_y> = 1
    <H_c> = 0
    <H_cAngle> = 0
    <J_re> = 0
    <J_im> = 0
    <Sigma> = 29
    <d_lam> = 0
    <Phi_h> = 0
    <Phi_hx> = 0
    <Phi_hy> = 0
    <LamType> = 0
    <LamFill> = 1
    <NStrands> = 0
    <WireD> = 0
    <BHPoints> = 0
  <EndBlock>
  <BeginBlock>
    <BlockName> = "BMN-52UH"
    <Mu_x> = 1.05
    <Mu_y> = 1.05
    <H_c> = 1098926.9880154678
    <H_cAngle> = 0
    <J_re> = 0
    <J_im> = 0
    <Sigma> = 0.66600000000000004
    <d_lam> = 0
    <Phi_h> = 0
    <Phi_hx> = 0
    <Phi_hy> = 0
    <LamType> = 0
    <LamFill> = 1
    <NStrands> = 0
    <WireD> = 0
    <BHPoints> = 0
  <EndBlock>
  <BeginBlock>
    <BlockName> = "DW235"
    <Mu_x> = 1
    <Mu_y> = 1
    <H_c> = 0
    <H_cAngle> = 0
    <J_re> = 0
    <J_im> = 0
    <Sigma> = 0
    <d_lam> = 0
    <Phi_h> = 0
    <Phi_hx> = 0
    <Phi_hy> = 0
    <LamType> = 0
    <LamFill> = 1
    <NStrands> = 0
    <WireD> = 0
    <BHPoints> = 0
  <EndBlock>
  <BeginBlock>
    <BlockName> = "Air"
    <Mu_x> = 1
    <Mu_y> = 1
    <H_c> = 0
    <H_cAngle> = 0
    <J_re> = 0
    <J_im> = 0
    <Sigma> = 0
    <d_lam> = 0
    <Phi_h> = 0
    <Phi_hx> = 0
    <Phi_hy> = 0
    <LamType> = 0
    <LamFill> = 1
    <NStrands> = 0
    <WireD> = 0
    <BHPoints> = 0
  <EndBlock>
  <BeginBlock>
    <BlockName> = "BMN-52UH_1"
    <Mu_x> = 1.05
    <Mu_y> = 1.05
    <H_c> = 1023101.0258424005
    <H_cAngle> = 0
    <J_re> = 0
    <J_im> = 0
    <Sigma> = 0.66600000000000004
    <d_lam> = 0
    <Phi_h> = 0
    <Phi_hx> = 0
    <Phi_hy> = 0
    <LamType> = 0
    <LamFill> = 1
    <NStrands> = 0
    <WireD> = 0
    <BHPoints> = 0
  <EndBlock>
  <BeginBlock>
    <BlockName> = "BMN-52UH_2"
    <Mu_x> = 1.05
    <Mu_y> = 1.05
    <H_c> = 1023101.0258424005
    <H_cAngle> = 0
    <J_re> = 0
    <J_im> = 0
    <Sigma> = 0.66600000000000004
    <d_lam> = 0
    <Phi_h> = 0
    <Phi_hx> = 0
    <Phi_hy> = 0
    <LamType> = 0
    <LamFill> = 1
    <NStrands> = 0
    <WireD> = 0
    <BHPoints> = 0
  <EndBlock>
[CircuitProps]  = 6
  <BeginCircuit>
    <CircuitName> = "fase1"
    <TotalAmps_re> = 757.21857126128566
    <TotalAmps_im> = 0
    <CircuitType> = 1
  <EndCircuit>
  <BeginCircuit>
    <CircuitName> = "fase2"
    <TotalAmps_re> = -1348.7552090176166
    <TotalAmps_im> = -0
    <CircuitType> = 1
  <EndCircuit>
  <BeginCircuit>
    <CircuitName> = "fase3"
    <TotalAmps_re> = 591.5366377563314
    <TotalAmps_im> = 0
    <CircuitType> = 1
  <EndCircuit>
  <BeginCircuit>
    <CircuitName> = "fase1n"
    <TotalAmps_re> = -757.21857126128566
    <TotalAmps_im> = -0
    <CircuitType> = 1
  <EndCircuit>
  <BeginCircuit>
    <CircuitName> = "fase2n"
    <TotalAmps_re> = 1348.7552090176166
    <TotalAmps_im> = 0
    <CircuitType> = 1
  <EndCircuit>
  <BeginCircuit>
    <CircuitName> = "fase3n"
    <TotalAmps_re> = -591.5366377563314
    <TotalAmps_im> = -0
    <CircuitType> = 1
  <EndCircuit>
[NumPoints] = 79
611.63900750105688	35.445569508756037	0	2
614.6284204532277	32.753889996545176	0	2
620.40983814123092	33.056881258681123	0	2
623.10151765344165	36.04629421085184	0	2
622.4475551519032	48.524642091356768	0	2
631.85078670621294	49.512961552898574	0	2
637.05819804905684	55.831015560247934	0	2
630.84853839883874	60.949087051897884	0	2
610.41497854287923	58.801433369481835	0	2
610.98504499951844	47.923917389260964	0	2
614.68513544372865	31.671703510553041	0	2
611.99345593151781	28.682290558382324	0	2
620.46655313173187	31.974694772688988	0	2
623.45596608390258	29.283015260478127	0	2
624.10992858544103	16.8046673799732	0	2
633.56495576795248	16.8046673799732	0	2
639.40425684283002	11.065547038815001	0	2
633.76359850581946	5.3264266976565224	0	2
613.21748488969547	5.3264266976565224	0	2
612.64741843305626	16.203942677877397	0	2
640	0	0	20
247.11000000000001	0	0	2
636.49401303569493	66.898216491298214	0	20
245.75630556445404	25.830028558069849	0	2
0	0	0	2
800	0	0	1
641	0	0	20
795.61751629461867	83.622770614122771	0	1
637.48853493106321	67.00274495456587	0	20
647.95132502504953	14.387068422718414	0	1
648.00501852846503	11.310969672225196	0	1
648.618207759097	17.061788977339724	0	1
786.76971091500457	21.886145773985632	0	1
789.07881265701099	19.706247666211645	0	1
789.21311404344476	13.775766147829117	0	1
789.28586528998198	7.8442102677583527	0	1
787.05424753719092	5.5850536063818534	0	1
648.81853492016103	5.5850536063818552	0	1
648.05871203188053	8.2348709217319787	0	1
718.70926944170856	5.5850536063818561	0	1
718.46636673355852	19.500940436309843	0	1
640.84129697060416	14.26296242138662	0	1
640.94868397743517	8.1107649204001842	0	1
647.05450913792583	36.991479340453722	0	1
647.21552423090918	33.919128342451295	0	1
647.6276392238542	39.687844399359534	0	1
785.52661659265164	49.330680257029833	0	1
787.91038903909066	47.232696572915117	0	1
788.25157943294369	41.310514794430325	0	1
788.53129467626434	35.385111239825051	0	1
786.37987979516618	33.049448459241518	0	1
648.22837663925861	28.225091662595617	0	1
647.37653932389264	30.846777344448867	0	1
718.07653561372001	30.664243121565736	0	1
717.34812342880343	44.563175586969493	0	1
639.95314355744893	36.619312540503905	0	1
640.27517374341573	30.474610544499043	0	1
645.36935700252388	59.550821838713269	0	1
645.6374975129869	56.4859617796333	0	1
645.84803616960733	62.265546296422499	0	1
783.32647908907984	76.71511290498961	0	1
785.78201798041755	74.701599714483649	0	1
786.32968169375113	68.794932942151519	0	1
786.81602014391819	62.882900904504574	0	1
784.74742930214541	60.473577650030876	0	1
646.84845193334797	50.830741792360584	0	1
645.90563802344968	53.421101720553338	0	1
716.56893613829698	55.706072979970543	0	1
715.35590193465771	69.571117372607404	0	1
638.2853058160938	58.931047668063265	0	1
638.82158683701959	52.801327549903334	0	1
799.51266161527656	27.919597362000776	0	1
640.60952011924041	22.370577386303122	0	1
798.05124020785934	55.805178995300253	0	1
639.43855621654734	44.713899669984329	0	1
640.66666666666663	0	0	20
637.15702763260708	66.967902133476642	0	20
640.33333333333337	0	0	20
636.82552033415107	66.933059312387428	0	20
[NumSegments] = 67
2	1	1.1851851851851851	0	0	2
4	3	1.1851851851851851	0	0	2
5	4	1.1851851851851851	0	0	2
8	7	1.1851851851851851	0	0	2
0	9	1.1851851851851851	0	0	2
3	0	1.1851851851851851	0	0	2
9	8	1.1851851851851851	0	0	2
9	4	1.1851851851851851	0	0	2
12	10	1.1851851851851851	0	0	2
14	13	1.1851851851851851	0	0	2
15	14	1.1851851851851851	0	0	2
18	17	1.1851851851851851	0	0	2
11	19	1.1851851851851851	0	0	2
13	11	1.1851851851851851	0	0	2
19	18	1.1851851851851851	0	0	2
19	14	1.1851851851851851	0	0	2
20	21	-1	4	0	2
23	22	-1	4	0	2
21	24	-1	2	0	2
24	23	-1	2	0	2
25	26	-1	10	0	1
28	27	-1	10	0	1
29	30	1.1851851851851851	0	0	1
31	29	1.1851851851851851	0	0	1
32	40	1.1851851851851851	0	0	1
34	33	1.1851851851851851	0	0	1
35	34	1.1851851851851851	0	0	1
37	39	1.1851851851851851	0	0	1
38	37	1.1851851851851851	0	0	1
30	38	1.1851851851851851	0	0	1
39	36	1.1851851851851851	0	0	1
40	31	1.1851851851851851	0	0	1
39	40	1.1851851851851851	0	0	1
29	41	1.1851851851851851	0	0	1
42	38	1.1851851851851851	0	0	1
43	44	1.1851851851851851	0	0	1
45	43	1.1851851851851851	0	0	1
46	54	1.1851851851851851	0	0	1
48	47	1.1851851851851851	0	0	1
49	48	1.1851851851851851	0	0	1
51	53	1.1851851851851851	0	0	1
52	51	1.1851851851851851	0	0	1
44	52	1.1851851851851851	0	0	1
53	50	1.1851851851851851	0	0	1
54	45	1.1851851851851851	0	0	1
53	54	1.1851851851851851	0	0	1
43	55	1.1851851851851851	0	0	1
56	52	1.1851851851851851	0	0	1
57	58	1.1851851851851851	0	0	1
59	57	1.1851851851851851	0	0	1
60	68	1.1851851851851851	0	0	1
62	61	1.1851851851851851	0	0	1
63	62	1.1851851851851851	0	0	1
65	67	1.1851851851851851	0	0	1
66	65	1.1851851851851851	0	0	1
58	66	1.1851851851851851	0	0	1
67	64	1.1851851851851851	0	0	1
68	59	1.1851851851851851	0	0	1
67	68	1.1851851851851851	0	0	1
57	69	1.1851851851851851	0	0	1
70	66	1.1851851851851851	0	0	1
71	72	1.1851851851851851	0	0	1
73	74	1.1851851851851851	0	0	1
75	26	0.11851851851851851	7	0	20
76	28	0.11851851851851851	7	0	20
77	20	0.11851851851851851	5	0	20
78	22	0.11851851851851851	5	0	20
[NumArcSegments] = 30
0	1	90.000000000001464	5.9683103659459844	0	0	2	5.9683103659459844
2	3	89.999999999998934	5.9683103659460794	0	0	2	5.9683103659460794
5	6	89.008536691812054	2.90685227455725	0	0	2	2.90685227455725
6	7	90.991463308186141	3.00922066134987	0	0	2	3.00922066134987
10	11	89.999999999998636	5.9683103659460661	0	0	2	5.9683103659460661
13	12	90.000000000001222	5.9683103659462224	0	0	2	5.9683103659462224
16	15	89.008536691810377	2.9068522745598546	0	0	2	2.9068522745598546
17	16	90.991463308186226	3.009220661355259	0	0	2	3.009220661355259
20	22	6	0.026525823848649224	0	0	2	0.026525823848649224
21	23	6	0.068700284339506701	0	0	2	0.068700284339506701
25	71	2	1.1851851851851851	1	0	1	0.095000000000000001
26	42	0.72499999999999953	0.026484441908167712	0	0	1	0.026484441908167712
33	32	90.702704393723167	7.6067016716892306	0	0	1	7.6067016716892306
36	35	90.70270439372355	7.606701671689053	0	0	1	7.606701671689053
41	72	0.72499999999999931	0.026484441908167712	0	0	1	0.026484441908167712
42	41	0.55000000000000004	0.026484441908167712	0	0	1	0.026484441908167712
47	46	90.702704393722883	7.6067016716893701	0	0	1	7.6067016716893701
50	49	90.702704393724034	7.6067016716890494	0	0	1	7.6067016716890494
55	74	0.72500000000000053	0.026484441908167712	0	0	1	0.026484441908167712
56	55	0.5500000000000006	0.026484441908167712	0	0	1	0.026484441908167712
61	60	90.702704393724986	7.6067016716896081	0	0	1	7.6067016716896081
64	63	90.702704393721262	7.6067016716890361	0	0	1	7.6067016716890361
69	28	0.72499999999999842	0.026484441908167712	0	0	1	0.026484441908167712
70	69	0.55000000000000004	0.026484441908167712	0	0	1	0.026484441908167712
71	73	2.0000000000000009	1.1851851851851851	1	0	1	0.13
72	56	0.72499999999999976	0.026484441908167712	0	0	1	0.026484441908167712
73	27	1.9999999999999971	1.1851851851851851	1	0	1	0.095000000000000001
74	70	0.72499999999999942	0.026484441908167712	0	0	1	0.026484441908167712
75	76	6	0.11851851851851851	11	0	20	0.014999999999999999
77	78	6	0.11851851851851851	11	0	20	0.014999999999999999
[NumHoles] = 0
[NumBlockLabels] = 22
617.04328132648004	41.985105800056402	8	1.1851851851851851	0	2.9999999999999747	201	1	0
618.05169225847942	22.743478969177762	9	1.1851851851851851	0	2.9999999999999747	202	1	0
617.44469593723932	34.325658743708544	7	1.1851851851851851	0	0	2	1	0
633.25250771803621	55.431021388348128	7	1.1851851851851851	0	0	2	1	0
617.65027764772015	30.40292602552562	7	1.1851851851851851	0	0	2	1	0
635.57760370553387	11.065547038814909	7	1.1851851851851851	0	0	2	1	0
429.29378802474508	22.498334090381515	1	1.1851851851851851	0	0	22	1	0
123.38567216660138	6.4663690735969253	7	1.1851851851851851	0	0	2	1	0
683.29641830804928	11.926983346785523	3	1.1851851851851851	1	0	1	1	0
753.87921786721768	13.159010695906174	3	1.1851851851851851	3	0	1	-1	0
644.45369556185597	11.248981099261963	7	1.1851851851851851	0	0	10	1	0
794.54563508427884	13.868845648827964	1	1.1851851851851851	0	0	12	1	0
682.46392687608545	35.766418848359457	3	1.1851851851851851	1	0	1	-1	0
752.96073216643777	39.460999860175768	3	1.1851851851851851	2	0	1	1	0
643.66852800429569	33.733238147089146	7	1.1851851851851851	0	0	10	1	0
793.5776036183014	41.58963989439269	1	1.1851851851851851	0	0	12	1	0
680.79995827473203	59.562278477961137	3	1.1851851851851851	2	0	1	-1	0
751.12487979822242	65.714911874616803	3	1.1851851851851851	3	0	1	1	0
642.09914949489792	56.176396440441096	7	1.1851851851851851	0	0	10	1	0
791.64272008357375	69.259763570139029	1	1.1851851851851851	0	0	12	1	0
639.95509352188947	33.538625292353174	7	0.11851851851851851	0	0	20	1	0
639.28934049871964	33.503734654857872	7	0.11851851851851851	0	0	20	1	0
