[Format]      =  4.0
[Frequency]   =  0
[Precision]   =  1e-008
[MinAngle]    =  15
[DoSmartMesh] =  1
[Depth]       =  134
[LengthUnits] =  millimeters
[ProblemType] =  planar
[Coordinates] =  cartesian
[ACSolver]    =  0
[PrevType]    =  0
[PrevSoln]    =  ""
[Comment]     =  "Add comments here."
[PointProps]   = 0
[BdryProps]   = 11
  <BeginBdry>
    <BdryName> = "A=0"
    <BdryType> = 0
    <A_0> = 0
    <A_1> = 0
    <A_2> = 0
    <Phi> = 0
    <c0> = 0
    <c0i> = 0
    <c1> = 0
    <c1i> = 0
    <Mu_ssd> = 0
    <Sigma_ssd> = 0
    <innerangle> = 0
    <outerangle> = 0
  <EndBdry>
  <BeginBdry>
    <BdryName> = "APr1"
    <BdryType> = 5
    <A_0> = 0
    <A_1> = 0
    <A_2> = 0
    <Phi> = 0
    <c0> = 0
    <c0i> = 0
    <c1> = 0
    <c1i> = 0
    <Mu_ssd> = 0
    <Sigma_ssd> = 0
    <innerangle> = 0
    <outerangle> = 0
  <EndBdry>
  <BeginBdry>
    <BdryName> = "APr2"
    <BdryType> = 5
    <A_0> = 0
    <A_1> = 0
    <A_2> = 0
    <Phi> = 0
    <c0> = 0
    <c0i> = 0
    <c1> = 0
    <c1i> = 0
    <Mu_ssd> = 0
    <Sigma_ssd> = 0
    <innerangle> = 0
    <outerangle> = 0
  <EndBdry>
  <BeginBdry>
    <BdryName> = "APr3"
    <BdryType> = 5
    <A_0> = 0
    <A_1> = 0
    <A_2> = 0
    <Phi> = 0
    <c0> = 0
    <c0i> = 0
    <c1> = 0
    <c1i> = 0
    <Mu_ssd> = 0
    <Sigma_ssd> = 0
    <innerangle> = 0
    <outerangle> = 0
  <EndBdry>
  <BeginBdry>
    <BdryName> = "APg1"
    <BdryType> = 5
    <A_0> = 0
    <A_1> = 0
    <A_2> = 0
    <Phi> = 0
    <c0> = 0
    <c0i> = 0
    <c1> = 0
    <c1i> = 0
    <Mu_ssd> = 0
    <Sigma_ssd> = 0
    <innerangle> = 0
    <outerangle> = 0
  <EndBdry>
  <BeginBdry>
    <BdryName> = "APg2"
    <BdryType> = 5
    <A_0> = 0
    <A_1> = 0
    <A_2> = 0
    <Phi> = 0
    <c0> = 0
    <c0i> = 0
    <c1> = 0
    <c1i> = 0
    <Mu_ssd> = 0
    <Sigma_ssd> = 0
    <innerangle> = 0
    <outerangle> = 0
  <EndBdry>
  <BeginBdry>
    <BdryName> = "APg3"
    <BdryType> = 5
    <A_0> = 0
    <A_1> = 0
    <A_2> = 0
    <Phi> = 0
    <c0> = 0
    <c0i> = 0
    <c1> = 0
    <c1i> = 0
    <Mu_ssd> = 0
    <Sigma_ssd> = 0
    <innerangle> = 0
    <outerangle> = 0
  <EndBdry>
  <BeginBdry>
    <BdryName> = "APs1"
    <BdryType> = 5
    <A_0> = 0
    <A_1> = 0
    <A_2> = 0
    <Phi> = 0
    <c0> = 0
    <c0i> = 0
    <c1> = 0
    <c1i> = 0
    <Mu_ssd> = 0
    <Sigma_ssd> = 0
    <innerangle> = 0
    <outerangle> = 0
  <EndBdry>
  <BeginBdry>
    <BdryName> = "APs2"
    <BdryType> = 5
    <A_0> = 0
    <A_1> = 0
    <A_2> = 0
    <Phi> = 0
    <c0> = 0
    <c0i> = 0
    <c1> = 0
    <c1i> = 0
    <Mu_ssd> = 0
    <Sigma_ssd> = 0
    <innerangle> = 0
    <outerangle> = 0
  <EndBdry>
  <BeginBdry>
    <BdryName> = "APs3"
    <BdryType> = 5
    <A_0> = 0
    <A_1> = 0
    <A_2> = 0
    <Phi> = 0
    <c0> = 0
    <c0i> = 0
    <c1> = 0
    <c1i> = 0
    <Mu_ssd> = 0
    <Sigma_ssd> = 0
    <innerangle> = 0
    <outerangle> = 0
  <EndBdry>
  <BeginBdry>
    <BdryName> = "AGap"
    <BdryType> = 7
    <A_0> = 0
    <A_1> = 0
    <A_2> = 0
    <Phi> = 0
    <c0> = 0
    <c0i> = 0
    <c1> = 0
    <c1i> = 0
    <Mu_ssd> = 0
    <Sigma_ssd> = 0
    <innerangle> = 1.3999999999999999
    <outerangle> = 0
  <EndBdry>
[BlockProps]  = 11
  <BeginBlock>
    <BlockName> = "M270-35A"
    <Mu_x> = 1
    <Mu_y> = 1
    <H_c> = 0
    <H_cAngle> = 0
    <J_re> = 0
    <J_im> = 0
    <Sigma> = 0
    <d_lam> = 0
    <Phi_h> = 0
    <Phi_hx> = 0
    <Phi_hy> = 0
    <LamType> = 0
    <LamFill> = 1
    <NStrands> = 0
    <WireD> = 0
    <BHPoints> = 200
      0	0
      0.0045422769999999999	3.2767874890000002
      0.0090353559999999996	6.114592773
      0.013222249	8.4602422570000009
      0.017196487	10.462328400000001
      0.020991169	12.199266809999999
      0.024640190999999999	13.72982376
      0.028168996000000002	15.09561901
      0.031597466999999997	16.327217480000002
      0.034941272000000002	17.447599879999999
      0.038212956999999999	18.47443998
      0.041422729999999998	19.421601849999998
      0.044579012000000001	20.300151339999999
      0.047688851999999997	21.119056130000001
      0.050758219	21.885681389999998
      0.053792226999999998	22.60614816
      0.056795300999999999	23.285597330000002
      0.059771310000000001	23.928387470000001
      0.062723663999999998	24.538245379999999
      0.065655396000000005	25.11838217
      0.068569221	25.67158405
      0.071467592999999996	26.200284
      0.074352739000000001	26.70661905
      0.077226698999999996	27.19247648
      0.080091349000000006	27.65953137
      0.082948429000000004	28.109277410000001
      0.085799557999999998	28.54305239
      0.088646256000000007	28.96205934
      0.091489953999999998	29.36738437
      0.094332005999999996	29.760011540000001
      0.097173704999999999	30.140835630000002
      0.100016285	30.510672870000001
      0.102860934	30.870270300000001
      0.105708802	31.220313650000001
      0.108561001	31.561434299999998
      0.11141862	31.894215259999999
      0.114282722	32.21919639
      0.117154355	32.536878999999999
      0.120034552	32.847729870000002
      0.12292433699999999	33.152184810000001
      0.12582473199999999	33.45065185
      0.12873675200000001	33.743513989999997
      0.13166142	34.031131799999997
      0.13459976100000001	34.313845620000002
      0.137552811	34.591977620000002
      0.14052161499999999	34.865833639999998
      0.14350723800000001	35.135704879999999
      0.14651076099999999	35.401869419999997
      0.14953328699999999	35.664593680000003
      0.15257594699999999	35.924133650000002
      0.155639899	36.180736189999998
      0.158726334	36.434640119999997
      0.161836481	36.686077320000003
      0.16497160599999999	36.93527375
      0.16813302299999999	37.182450420000002
      0.17132209400000001	37.427824389999998
      0.17454023399999999	37.671609650000001
      0.17778891699999999	37.914018050000003
      0.18106968000000001	38.155260249999998
      0.18438413100000001	38.395546590000002
      0.18773395400000001	38.635088090000004
      0.191120915	38.87409736
      0.19454686800000001	39.112789630000002
      0.19801376800000001	39.351383830000003
      0.20152367299999999	39.590103640000002
      0.20507876	39.829178749999997
      0.208681327	40.068846100000002
      0.21233381500000001	40.309351300000003
      0.216038808	40.550950149999998
      0.21979905799999999	40.793910310000001
      0.22361749	41.038513199999997
      0.227497227	41.285056060000002
      0.2314416	41.53385428
      0.23545417299999999	41.785244059999997
      0.23953876299999999	42.039585369999998
      0.24369946200000001	42.297265359999997
      0.247940667	42.558702250000003
      0.25226710400000002	42.824349750000003
      0.25668386300000001	43.0947022
      0.26119642799999998	43.370300520000001
      0.26581071499999998	43.651739030000002
      0.27054201700000002	43.94020278
      0.275438138	44.23873004
      0.28051031599999998	44.548036490000001
      0.28576849199999999	44.868763260000001
      0.29122336399999998	45.201605100000002
      0.296886504	45.547319020000003
      0.30277045699999999	45.906731970000003
      0.30888884599999999	46.280749559999997
      0.31525650100000002	46.670366299999998
      0.321889598	47.076677459999999
      0.328805825	47.50089294
      0.33602457000000002	47.944353649999996
      0.34356714500000002	48.408550759999997
      0.351457032	48.895148689999999
      0.35972019	49.406012390000001
      0.36838539799999998	49.943240269999997
      0.37748466600000002	50.509203810000002
      0.38705371900000002	51.106595769999998
      0.39713256899999999	51.738489119999997
      0.40776619800000002	52.408409570000003
      0.41900536300000002	53.120425429999997
      0.43090757000000002	53.879259759999997
      0.44353822799999998	54.690431349999997
      0.45697202599999998	55.560433060000001
      0.47129457299999999	56.49695913
      0.486604327	57.509196449999997
      0.503014823	58.60819978
      0.520657166	59.807376320000003
      0.53968265500000001	61.123111049999999
      0.56026517099999995	62.575567960000001
      0.58260257699999995	64.189698669999999
      0.60691558199999995	65.996464399999994
      0.63344113800000001	68.034201780000004
      0.662415215	70.349880479999996
      0.69403682899999997	72.999622560000006
      0.72840307800000004	76.047204840000006
      0.76540934699999996	79.558509650000005
      0.80463064699999998	83.589963030000007
      0.84524547999999999	88.171938179999998
      0.88609953900000005	93.294734669999997
      0.92594964300000004	98.90894376
      0.963771241	104.9435902
      0.99893980100000002	111.3300564
      1.0312218310000001	118.0174305
      1.0606584889999999	124.9760964
      1.0874410889999999	132.19454709999999
      1.1118223309999999	139.6744898
      1.1340651580000001	147.42664859999999
      1.1544176930000001	155.46782519999999
      1.173103241	163.8190534
      1.1903180360000001	172.50453999999999
      1.2062325739999999	181.55112829999999
      1.220994358	190.98810510000001
      1.234730984	200.84723579999999
      1.2475531	211.16296399999999
      1.2595570490000001	221.97273730000001
      1.270827143	233.31744900000001
      1.281437594	245.2419931
      1.291454146	257.79594609999998
      1.3009354369999999	271.03439809999998
      1.309934159	285.01896390000002
      1.318498043	299.81902289999999
      1.326670706	315.51324579999999
      1.3344924010000001	332.19149570000002
      1.3420006879999999	349.95721329999998
      1.3492310569999999	368.93044570000001
      1.356217531	389.25173360000002
      1.362993272	411.08716509999999
      1.3695912379999999	434.63503709999998
      1.3760449050000001	460.1347695
      1.382389146	487.87903890000001
      1.3886613240000001	518.23060969999995
      1.394902732	551.64618570000005
      1.401160583	588.71104339999999
      1.4074908660000001	630.19074279999995
      1.4139626249999999	677.11087850000001
      1.420664664	730.8848299
      1.4277165590000001	793.52783980000004
      1.435287779	868.03580320000003
      1.4436331710000001	959.10175079999999
      1.453164339	1074.5891859999999
      1.464608755	1228.9034079999999
      1.479413587	1451.8548430000001
      1.5007295060000001	1812.597843
      1.531321148	2396.2922779999999
      1.5749716949999999	3340.7297119999998
      1.6351726849999999	4868.8615820000005
      1.6746062129999999	6056.7860730000002
      1.7053540309999999	7126.7301200000002
      1.7307497590000001	8135.9466300000004
      1.752580204	9119.3875740000003
      1.771845345	10098.25848
      1.789165838	11087.22133
      1.804957089	12097.58993
      1.819514077	13138.977849999999
      1.8330565510000001	14220.25051
      1.845754994	15350.15127
      1.8577465099999999	16537.778849999999
      1.869145125	17793.012470000001
      1.8800488470000001	19126.948680000001
      1.8905448170000001	20552.403480000001
      1.9007133519999999	22084.53774
      1.9106314310000001	23741.68173
      1.920376064	25546.46932
      1.930027954	27527.455720000002
      1.9396760099999999	29721.505959999999
      1.9494234969999999	32177.45292
      1.959397184	34961.935420000002
      1.969762051	38169.180130000001
      1.980746793	41938.394229999998
      1.9926918389999999	46487.096960000003
      2.0061495709999999	52181.595710000001
      2.022124024	59707.652569999998
      2.042772002	70576.241299999994
      2.0725625070000002	88161.987269999998
      2.1158769670000002	116616.322
      2.1803765140000002	162656.4026
      2.2792825830000001	237150.818
      2.3747656959999999	310949.48619999998
  <EndBlock>
  <BeginBlock>
    <BlockName> = "ShaftAir"
    <Mu_x> = 1
    <Mu_y> = 1
    <H_c> = 0
    <H_cAngle> = 0
    <J_re> = 0
    <J_im> = 0
    <Sigma> = 0
    <d_lam> = 0
    <Phi_h> = 0
    <Phi_hx> = 0
    <Phi_hy> = 0
    <LamType> = 0
    <LamFill> = 1
    <NStrands> = 0
    <WireD> = 0
    <BHPoints> = 3
      -100	-7.9577471545947675e-011
      0	0
      100	7.9577471545947675e-011
  <EndBlock>
  <BeginBlock>
    <BlockName> = "Copper"
    <Mu_x> = 1
    <Mu_y> = 1
    <H_c> = 0
    <H_cAngle> = 0
    <J_re> = 0
    <J_im> = 0
    <Sigma> = 58
    <d_lam> = 0
    <Phi_h> = 0
    <Phi_hx> = 0
    <Phi_hy> = 0
    <LamType> = 0
    <LamFill> = 1
    <NStrands> = 0
    <WireD> = 0
    <BHPoints> = 0
  <EndBlock>
  <BeginBlock>
    <BlockName> = "Aluminium"
    <Mu_x> = 1
    <Mu_y> = 1
    <H_c> = 0
    <H_cAngle> = 0
    <J_re> = 0
    <J_im> = 0
    <Sigma> = 29
    <d_lam> = 0
    <Phi_h> = 0
    <Phi_hx> = 0
    <Phi_hy> = 0
    <LamType> = 0
    <LamFill> = 1
    <NStrands> = 0
    <WireD> = 0
    <BHPoints> = 0
  <EndBlock>
  <BeginBlock>
    <BlockName> = "BMH-38EH"
    <Mu_x> = 1.05
    <Mu_y> = 1.05
    <H_c> = 954929.65855137201
    <H_cAngle> = 0
    <J_re> = 0
    <J_im> = 0
    <Sigma> = 0.66666666666666663
    <d_lam> = 0
    <Phi_h> = 0
    <Phi_hx> = 0
    <Phi_hy> = 0
    <LamType> = 0
    <LamFill> = 1
    <NStrands> = 0
    <WireD> = 0
    <BHPoints> = 0
  <EndBlock>
  <BeginBlock>
    <BlockName> = "DW235"
    <Mu_x> = 1
    <Mu_y> = 1
    <H_c> = 0
    <H_cAngle> = 0
    <J_re> = 0
    <J_im> = 0
    <Sigma> = 0
    <d_lam> = 0
    <Phi_h> = 0
    <Phi_hx> = 0
    <Phi_hy> = 0
    <LamType> = 0
    <LamFill> = 1
    <NStrands> = 0
    <WireD> = 0
    <BHPoints> = 0
  <EndBlock>
  <BeginBlock>
    <BlockName> = "Air"
    <Mu_x> = 1
    <Mu_y> = 1
    <H_c> = 0
    <H_cAngle> = 0
    <J_re> = 0
    <J_im> = 0
    <Sigma> = 0
    <d_lam> = 0
    <Phi_h> = 0
    <Phi_hx> = 0
    <Phi_hy> = 0
    <LamType> = 0
    <LamFill> = 1
    <NStrands> = 0
    <WireD> = 0
    <BHPoints> = 0
  <EndBlock>
  <BeginBlock>
    <BlockName> = "BMH-38EH_1"
    <Mu_x> = 1.05
    <Mu_y> = 1.05
    <H_c> = 890471.90659915435
    <H_cAngle> = 0
    <J_re> = 0
    <J_im> = 0
    <Sigma> = 0.66666666666666663
    <d_lam> = 0
    <Phi_h> = 0
    <Phi_hx> = 0
    <Phi_hy> = 0
    <LamType> = 0
    <LamFill> = 1
    <NStrands> = 0
    <WireD> = 0
    <BHPoints> = 0
  <EndBlock>
  <BeginBlock>
    <BlockName> = "BMH-38EH_2"
    <Mu_x> = 1.05
    <Mu_y> = 1.05
    <H_c> = 890471.90659915435
    <H_cAngle> = 0
    <J_re> = 0
    <J_im> = 0
    <Sigma> = 0.66666666666666663
    <d_lam> = 0
    <Phi_h> = 0
    <Phi_hx> = 0
    <Phi_hy> = 0
    <LamType> = 0
    <LamFill> = 1
    <NStrands> = 0
    <WireD> = 0
    <BHPoints> = 0
  <EndBlock>
  <BeginBlock>
    <BlockName> = "BMH-38EH_3"
    <Mu_x> = 1.05
    <Mu_y> = 1.05
    <H_c> = 890471.90659915435
    <H_cAngle> = 0
    <J_re> = 0
    <J_im> = 0
    <Sigma> = 0.66666666666666663
    <d_lam> = 0
    <Phi_h> = 0
    <Phi_hx> = 0
    <Phi_hy> = 0
    <LamType> = 0
    <LamFill> = 1
    <NStrands> = 0
    <WireD> = 0
    <BHPoints> = 0
  <EndBlock>
  <BeginBlock>
    <BlockName> = "BMH-38EH_4"
    <Mu_x> = 1.05
    <Mu_y> = 1.05
    <H_c> = 890471.90659915435
    <H_cAngle> = 0
    <J_re> = 0
    <J_im> = 0
    <Sigma> = 0.66666666666666663
    <d_lam> = 0
    <Phi_h> = 0
    <Phi_hx> = 0
    <Phi_hy> = 0
    <LamType> = 0
    <LamFill> = 1
    <NStrands> = 0
    <WireD> = 0
    <BHPoints> = 0
  <EndBlock>
[CircuitProps]  = 6
  <BeginCircuit>
    <CircuitName> = "fase1"
    <TotalAmps_re> = -193.44319286436985
    <TotalAmps_im> = -0
    <CircuitType> = 1
  <EndCircuit>
  <BeginCircuit>
    <CircuitName> = "fase2"
    <TotalAmps_re> = -279.50878049859494
    <TotalAmps_im> = -0
    <CircuitType> = 1
  <EndCircuit>
  <BeginCircuit>
    <CircuitName> = "fase3"
    <TotalAmps_re> = 472.95197336296468
    <TotalAmps_im> = 0
    <CircuitType> = 1
  <EndCircuit>
  <BeginCircuit>
    <CircuitName> = "fase1n"
    <TotalAmps_re> = 193.44319286436985
    <TotalAmps_im> = 0
    <CircuitType> = 1
  <EndCircuit>
  <BeginCircuit>
    <CircuitName> = "fase2n"
    <TotalAmps_re> = 279.50878049859494
    <TotalAmps_im> = 0
    <CircuitType> = 1
  <EndCircuit>
  <BeginCircuit>
    <CircuitName> = "fase3n"
    <TotalAmps_re> = -472.95197336296468
    <TotalAmps_im> = -0
    <CircuitType> = 1
  <EndCircuit>
[NumPoints] = 195
740.90179008312782	41.953496933377494	0	2
743.87837864246433	39.273364556340169	0	2
744.21094912484455	39.290793836776807	0	2
746.8910815018819	42.267382396113376	0	2
746.41364914189808	51.377334516108021	0	2
754.20403337504138	52.196136893358315	0	2
756.96802384496607	55.501449316632858	0	2
753.76531878654816	58.179636769334067	0	2
740.12654033261833	56.746143389975771	0	2
722.90448556298668	42.121559497064545	0	2
725.89389851515739	39.429879984853692	0	2
732.3728825676402	39.76942915105456	0	2
735.06456207985104	42.75884210322527	0	2
734.05772512322505	61.970435694862005	0	2
749.21949336108378	63.564001750777564	0	2
755.63411683053948	71.400850707331756	0	2
750.13275794409719	75.903827097791719	0	2
721.29288999413041	72.872634831747376	0	2
740.424357723144	51.063449053372139	0	2
721.89764860636069	61.33315308870128	0	2
743.90851949540627	38.698242821469847	0	2
741.22838711836891	35.721654262133285	0	2
744.24108997778649	38.715672101906485	0	2
747.21767853712299	36.035539724869167	0	2
747.69511089710682	26.925587604874526	0	2
755.52840674451352	26.925587604874533	0	2
758.62275501366719	23.927297705202903	0	2
755.71754152743745	20.929007805535011	0	2
742.0036368688784	20.929007805535008	0	2
726.03892054920425	36.66269473047516	0	2
723.3472410369933	33.67328177830445	0	2
732.51790460168706	37.002243896676028	0	2
735.50731755385766	34.310564384465174	0	2
736.51415451048365	15.098970792828435	0	2
751.75943800647383	15.098970792828442	0	2
758.95809527567997	7.9755636485441137	0	2
753.95756261105953	2.9222064436216257	0	2
724.95883660584957	2.9222064436216115	0	2
741.70581947835274	26.611702142138643	0	2
724.35407799361928	14.461688186667711	0	2
760	0	0	20
247.11000000000001	0	0	2
755.83664047988771	79.441632083416621	0	20
245.75630556445404	25.830028558069849	0	2
0	0	0	2
800	0	0	1
761	0	0	20
795.61751629461867	83.622770614122771	0	1
756.83116237525599	79.546160546684277	0	20
768.0900551758474	5.6861499029521454	0	1
768.0971383340385	4.4686584291092606	0	1
768.36320680024755	6.729815311907954	0	1
786.85721932449019	6.9450126304979616	0	1
787.30591825272609	6.5047406102144087	0	1
787.32000917933067	4.5804938201651462	0	1
787.32830832943864	2.6562133345459231	0	1
786.88476245650986	2.2107503858594839	0	1
768.38949795089206	2.2107503858594835	0	1
768.10422149222961	3.2511669552663762	0	1
777.72025200350936	2.2107503858594848	0	1
777.69332923549678	6.8383811154376195	0	1
760.97906440708118	5.6447793688721895	0	1
760.9932307234634	3.2097964211864203	0	1
767.97190176121478	14.62269694749499	0	1
767.99315027684179	13.40537030250864	0	1
768.23289157099521	15.66946990040984	0	1
786.72314832061011	16.099835403317698	0	1
787.17693955750076	15.664813917220911	0	1
787.21341865313207	13.740861334954555	0	1
787.24410675638057	11.816807670540157	0	1
786.80577398777007	11.366214102003324	0	1
768.31176146352766	11.151016783413318	0	1
768.01439879246891	12.188043657522289	0	1
777.64188389877665	11.259582586942985	0	1
777.56111923965068	15.886586809397247	0	1
760.86187370676919	14.498590946163198	0	1
760.90437073802343	12.063937656190495	0	1
767.7497772444126	23.557264312944326	0	1
767.78518824076684	22.340267303355851	0	1
767.99856990573107	24.607003093516635	0	1
786.48256759593755	25.252478516142332	0	1
786.9413897054136	24.822766459177913	0	1
787.00025203138603	22.899368557076386	0	1
787.0533249330972	20.975802199933636	0	1
786.62026461204505	20.520139014702703	0	1
768.13000786243038	20.089773511794849	0	1
767.82059923712097	21.12327029376738	0	1
777.45823553108562	20.306890420782253	0	1
777.32363991508828	24.932641713807804	0	1
760.64167448827254	23.350439646326642	0	1
760.71249648098092	20.916445627149695	0	1
767.42371169754506	32.48864240189917	0	1
767.47328038054422	31.272139789622564	0	1
767.66027352785761	33.541204892301771	0	1
786.13550972125142	34.401702847605549	0	1
786.59930058614373	33.977358395907387	0	1
786.68053817344071	32.054775571257785	0	1
786.75598868839313	30.13195694147991	0	1
786.32825944433478	29.671285829056121	0	1
767.84426175412852	29.025810406430431	0	1
767.5228490635435	30.055637177345961	0	1
777.1693317634855	29.351449026721593	0	1
776.98092341270842	33.975321137640186	0	1
760.3184965630403	32.199127070744709	0	1
760.41763392903874	29.766121846191499	0	1
766.99374926466737	41.415622048735543	0	1
767.05746892350544	40.19977852875131	0	1
767.21804823728894	42.470865748856156	0	1
785.68202168263235	43.546269739189306	0	1
786.1507185130821	43.127350342203457	0	1
786.25432036343454	41.205842881944449	0	1
786.3521382768364	39.284032298394351	0	1
785.92979801746446	38.81841562627212	0	1
767.45456182407077	37.957917670968349	0	1
767.12118858234351	38.983935008767077	0	1
776.77521170892157	38.392033916306758	0	1
776.53301613083966	43.013400846851326	0	1
759.89238368419035	41.043455248785712	0	1
760.01982300186648	38.611768208817253	0	1
766.45994815581048	50.336994683308092	0	1
766.53781016386552	49.121974861366198	0	1
766.6719539042507	51.394776730041556	0	1
785.1221648751017	52.684941162918356	0	1
785.59570421706064	52.2715035356253	0	1
785.72165630443646	50.35133158110844	0	1
785.84182837330809	48.430789226175698	0	1
785.42493427673321	47.960290031399055	0	1
766.96096083138991	46.884886041065911	0	1
766.61567217192066	47.906955039424304	0	1
776.27592872494051	47.427421139061074	0	1
775.97997870895801	52.045657230125862	0	1
759.36339354058555	49.88222679999015	0	1
759.51911755669573	47.452187156106362	0	1
765.82238063909972	59.2515524945712	0	1
765.91437445510223	58.037520864906071	0	1
766.02206446117395	60.31172968116087	0	1
784.45601509430935	61.816479888969432	0	1
784.93433283813067	61.408580004205795	0	1
785.08261811063358	59.490003515976511	0	1
785.22512806560053	57.570989400352865	0	1
784.81373657260963	57.095671380981258	0	1
766.36352560175874	55.80550694810448	0	1
766.00636827110498	56.823489235240949	0	1
775.67155040646594	56.456387448188771	0	1
775.3218860194778	61.070867464533571	0	1
758.73159774902342	58.714245096176832	0	1
758.91558538102856	56.28618183684658	0	1
765.08113303097105	68.158088594097222	0	1
765.18724620043088	66.945209517157878	0	1
765.26846789268609	69.22051738952284	0	1
783.68366252627197	70.939649653172353	0	1
784.16669391539006	70.537342734053055	0	1
784.33729229756773	68.62062145665621	0	1
784.50212084506313	66.70339538413424	0	1
784.0962876514792	66.223322890618832	0	1
765.66233701834403	64.71857268281029	0	1
765.29335936989094	65.732330440218519	0	1
774.96215857664777	65.477710466182984	0	1
774.55882715761459	70.087809681079989	0	1
757.99708184454073	67.538314423447204	0	1
758.20930818346073	65.112556269568515	0	1
764.23630568448482	77.055397179469878	0	1
764.35652384137768	75.843834859668135	0	1
764.41126622369939	78.119933747879386	0	1
782.80521173516411	80.053215324380403	0	1
783.29289137486091	79.656555836822392	0	1
783.48577977042316	77.741949263636968	0	1
783.67290459530034	75.826770795936852	0	1
783.2726846444416	75.342008822408488	0	1
764.85749001085583	73.622876558758989	0	1
764.47674199827054	74.632272539866406	0	1
774.1478492757841	74.490168850316138	0	1
773.69090542932372	79.095263130127918	0	1
757.15994526883321	76.353240144065879	0	1
757.40038158261893	73.930115504462393	0	1
799.9458464030098	9.3082126411176116	0	1
760.94848639086308	8.8544372748631286	0	1
799.78339294356942	18.615165099245058	0	1
760.79395253757036	17.707675800656862	0	1
799.51266161527656	27.919597362000776	0	1
760.5364193615319	26.558516990603238	0	1
799.13368907081963	37.220249758197319	0	1
760.17592172861714	35.405762582485202	0	1
798.6465266170145	46.515863128380666	0	1
759.71250844443512	44.248214800872113	0	1
798.05124020785934	55.805178995300253	0	1
759.14624224772626	53.084676519279363	0	1
797.34791043560483	65.086939734286631	0	1
758.47719980186912	61.91395142224016	0	1
796.53663251984358	74.359888743513764	0	1
757.70547168450116	70.734844167267468	0	1
760.66666666666663	0	0	20
756.49965507679985	79.511317725595063	0	20
760.33333333333337	0	0	20
756.16814777834384	79.476474904505849	0	20
[NumSegments] = 167
2	1	1.1851851851851851	0	0	2
4	3	1.1851851851851851	0	0	2
5	4	1.1851851851851851	0	0	2
8	7	1.1851851851851851	0	0	2
0	18	1.1851851851851851	0	0	2
11	10	1.1851851851851851	0	0	2
13	12	1.1851851851851851	0	0	2
14	13	1.1851851851851851	0	0	2
17	16	1.1851851851851851	0	0	2
9	19	1.1851851851851851	0	0	2
3	0	1.1851851851851851	0	0	2
18	8	1.1851851851851851	0	0	2
18	4	1.1851851851851851	0	0	2
12	9	1.1851851851851851	0	0	2
19	17	1.1851851851851851	0	0	2
19	13	1.1851851851851851	0	0	2
22	20	1.1851851851851851	0	0	2
24	23	1.1851851851851851	0	0	2
25	24	1.1851851851851851	0	0	2
28	27	1.1851851851851851	0	0	2
21	38	1.1851851851851851	0	0	2
31	29	1.1851851851851851	0	0	2
33	32	1.1851851851851851	0	0	2
34	33	1.1851851851851851	0	0	2
37	36	1.1851851851851851	0	0	2
30	39	1.1851851851851851	0	0	2
23	21	1.1851851851851851	0	0	2
38	28	1.1851851851851851	0	0	2
38	24	1.1851851851851851	0	0	2
32	30	1.1851851851851851	0	0	2
39	37	1.1851851851851851	0	0	2
39	33	1.1851851851851851	0	0	2
40	41	-1	4	0	2
43	42	-1	4	0	2
41	44	-1	2	0	2
44	43	-1	2	0	2
45	46	-1	10	0	1
48	47	-1	10	0	1
49	50	1.1851851851851851	0	0	1
51	49	1.1851851851851851	0	0	1
52	60	1.1851851851851851	0	0	1
54	53	1.1851851851851851	0	0	1
55	54	1.1851851851851851	0	0	1
57	59	1.1851851851851851	0	0	1
58	57	1.1851851851851851	0	0	1
50	58	1.1851851851851851	0	0	1
59	56	1.1851851851851851	0	0	1
60	51	1.1851851851851851	0	0	1
59	60	1.1851851851851851	0	0	1
49	61	1.1851851851851851	0	0	1
62	58	1.1851851851851851	0	0	1
63	64	1.1851851851851851	0	0	1
65	63	1.1851851851851851	0	0	1
66	74	1.1851851851851851	0	0	1
68	67	1.1851851851851851	0	0	1
69	68	1.1851851851851851	0	0	1
71	73	1.1851851851851851	0	0	1
72	71	1.1851851851851851	0	0	1
64	72	1.1851851851851851	0	0	1
73	70	1.1851851851851851	0	0	1
74	65	1.1851851851851851	0	0	1
73	74	1.1851851851851851	0	0	1
63	75	1.1851851851851851	0	0	1
76	72	1.1851851851851851	0	0	1
77	78	1.1851851851851851	0	0	1
79	77	1.1851851851851851	0	0	1
80	88	1.1851851851851851	0	0	1
82	81	1.1851851851851851	0	0	1
83	82	1.1851851851851851	0	0	1
85	87	1.1851851851851851	0	0	1
86	85	1.1851851851851851	0	0	1
78	86	1.1851851851851851	0	0	1
87	84	1.1851851851851851	0	0	1
88	79	1.1851851851851851	0	0	1
87	88	1.1851851851851851	0	0	1
77	89	1.1851851851851851	0	0	1
90	86	1.1851851851851851	0	0	1
91	92	1.1851851851851851	0	0	1
93	91	1.1851851851851851	0	0	1
94	102	1.1851851851851851	0	0	1
96	95	1.1851851851851851	0	0	1
97	96	1.1851851851851851	0	0	1
99	101	1.1851851851851851	0	0	1
100	99	1.1851851851851851	0	0	1
92	100	1.1851851851851851	0	0	1
101	98	1.1851851851851851	0	0	1
102	93	1.1851851851851851	0	0	1
101	102	1.1851851851851851	0	0	1
91	103	1.1851851851851851	0	0	1
104	100	1.1851851851851851	0	0	1
105	106	1.1851851851851851	0	0	1
107	105	1.1851851851851851	0	0	1
108	116	1.1851851851851851	0	0	1
110	109	1.1851851851851851	0	0	1
111	110	1.1851851851851851	0	0	1
113	115	1.1851851851851851	0	0	1
114	113	1.1851851851851851	0	0	1
106	114	1.1851851851851851	0	0	1
115	112	1.1851851851851851	0	0	1
116	107	1.1851851851851851	0	0	1
115	116	1.1851851851851851	0	0	1
105	117	1.1851851851851851	0	0	1
118	114	1.1851851851851851	0	0	1
119	120	1.1851851851851851	0	0	1
121	119	1.1851851851851851	0	0	1
122	130	1.1851851851851851	0	0	1
124	123	1.1851851851851851	0	0	1
125	124	1.1851851851851851	0	0	1
127	129	1.1851851851851851	0	0	1
128	127	1.1851851851851851	0	0	1
120	128	1.1851851851851851	0	0	1
129	126	1.1851851851851851	0	0	1
130	121	1.1851851851851851	0	0	1
129	130	1.1851851851851851	0	0	1
119	131	1.1851851851851851	0	0	1
132	128	1.1851851851851851	0	0	1
133	134	1.1851851851851851	0	0	1
135	133	1.1851851851851851	0	0	1
136	144	1.1851851851851851	0	0	1
138	137	1.1851851851851851	0	0	1
139	138	1.1851851851851851	0	0	1
141	143	1.1851851851851851	0	0	1
142	141	1.1851851851851851	0	0	1
134	142	1.1851851851851851	0	0	1
143	140	1.1851851851851851	0	0	1
144	135	1.1851851851851851	0	0	1
143	144	1.1851851851851851	0	0	1
133	145	1.1851851851851851	0	0	1
146	142	1.1851851851851851	0	0	1
147	148	1.1851851851851851	0	0	1
149	147	1.1851851851851851	0	0	1
150	158	1.1851851851851851	0	0	1
152	151	1.1851851851851851	0	0	1
153	152	1.1851851851851851	0	0	1
155	157	1.1851851851851851	0	0	1
156	155	1.1851851851851851	0	0	1
148	156	1.1851851851851851	0	0	1
157	154	1.1851851851851851	0	0	1
158	149	1.1851851851851851	0	0	1
157	158	1.1851851851851851	0	0	1
147	159	1.1851851851851851	0	0	1
160	156	1.1851851851851851	0	0	1
161	162	1.1851851851851851	0	0	1
163	161	1.1851851851851851	0	0	1
164	172	1.1851851851851851	0	0	1
166	165	1.1851851851851851	0	0	1
167	166	1.1851851851851851	0	0	1
169	171	1.1851851851851851	0	0	1
170	169	1.1851851851851851	0	0	1
162	170	1.1851851851851851	0	0	1
171	168	1.1851851851851851	0	0	1
172	163	1.1851851851851851	0	0	1
171	172	1.1851851851851851	0	0	1
161	173	1.1851851851851851	0	0	1
174	170	1.1851851851851851	0	0	1
175	176	1.1851851851851851	0	0	1
177	178	1.1851851851851851	0	0	1
179	180	1.1851851851851851	0	0	1
181	182	1.1851851851851851	0	0	1
183	184	1.1851851851851851	0	0	1
185	186	1.1851851851851851	0	0	1
187	188	1.1851851851851851	0	0	1
189	190	1.1851851851851851	0	0	1
191	46	0.11851851851851851	7	0	20
192	48	0.11851851851851851	7	0	20
193	40	0.11851851851851851	5	0	20
194	42	0.11851851851851851	5	0	20
[NumArcSegments] = 74
0	1	89.999999999999105	5.994024351995324	0	0	2	5.994024351995324
2	3	90.000000000001023	5.9940243519952974	0	0	2	5.9940243519952974
5	6	88.193464624511648	5.483574556451579	0	0	2	5.483574556451579
6	7	91.806535375485637	5.8405654241053409	0	0	2	5.8405654241053409
9	10	89.999999999999076	5.9683103659459826	0	0	2	5.9683103659459826
11	12	90.000000000001066	5.9683103659460937	0	0	2	5.9683103659460937
14	15	89.397925499008167	2.3581606050596018	0	0	2	2.3581606050596018
15	16	90.602074500990142	3.3947563429976944	0	0	2	3.3947563429976944
20	21	90.000000000000909	5.9940243519952983	0	0	2	5.9940243519952983
23	22	89.999999999998991	5.9940243519953214	0	0	2	5.9940243519953214
26	25	88.193464624512018	5.4835745563825808	0	0	2	5.4835745563825808