[Format]      =  4.0
[Frequency]   =  0
[Precision]   =  1e-008
[MinAngle]    =  15
[DoSmartMesh] =  1
[Depth]       =  300
[LengthUnits] =  millimeters
[ProblemType] =  planar
[Coordinates] =  cartesian
[ACSolver]    =  0
[PrevType]    =  0
[PrevSoln]    =  ""
[Comment]     =  "Add comments here."
[PointProps]   = 0
[BdryProps]   = 11
  <BeginBdry>
    <BdryName> = "A=0"
    <BdryType> = 0
    <A_0> = 0
    <A_1> = 0
    <A_2> = 0
    <Phi> = 0
    <c0> = 0
    <c0i> = 0
    <c1> = 0
    <c1i> = 0
    <Mu_ssd> = 0
    <Sigma_ssd> = 0
    <innerangle> = 0
    <outerangle> = 0
  <EndBdry>
  <BeginBdry>
    <BdryName> = "APr1"
    <BdryType> = 5
    <A_0> = 0
    <A_1> = 0
    <A_2> = 0
    <Phi> = 0
    <c0> = 0
    <c0i> = 0
    <c1> = 0
    <c1i> = 0
    <Mu_ssd> = 0
    <Sigma_ssd> = 0
    <innerangle> = 0
    <outerangle> = 0
  <EndBdry>
  <BeginBdry>
    <BdryName> = "APr2"
    <BdryType> = 5
    <A_0> = 0
    <A_1> = 0
    <A_2> = 0
    <Phi> = 0
    <c0> = 0
    <c0i> = 0
    <c1> = 0
    <c1i> = 0
    <Mu_ssd> = 0
    <Sigma_ssd> = 0
    <innerangle> = 0
    <outerangle> = 0
  <EndBdry>
  <BeginBdry>
    <BdryName> = "APr3"
    <BdryType> = 5
    <A_0> = 0
    <A_1> = 0
    <A_2> = 0
    <Phi> = 0
    <c0> = 0
    <c0i> = 0
    <c1> = 0
    <c1i> = 0
    <Mu_ssd> = 0
    <Sigma_ssd> = 0
    <innerangle> = 0
    <outerangle> = 0
  <EndBdry>
  <BeginBdry>
    <BdryName> = "APg1"
    <BdryType> = 5
    <A_0> = 0
    <A_1> = 0
    <A_2> = 0
    <Phi> = 0
    <c0> = 0
    <c0i> = 0
    <c1> = 0
    <c1i> = 0
    <Mu_ssd> = 0
    <Sigma_ssd> = 0
    <innerangle> = 0
    <outerangle> = 0
  <EndBdry>
  <BeginBdry>
    <BdryName> = "APg2"
    <BdryType> = 5
    <A_0> = 0
    <A_1> = 0
    <A_2> = 0
    <Phi> = 0
    <c0> = 0
    <c0i> = 0
    <c1> = 0
    <c1i> = 0
    <Mu_ssd> = 0
    <Sigma_ssd> = 0
    <innerangle> = 0
    <outerangle> = 0
  <EndBdry>
  <BeginBdry>
    <BdryName> = "APg3"
    <BdryType> = 5
    <A_0> = 0
    <A_1> = 0
    <A_2> = 0
    <Phi> = 0
    <c0> = 0
    <c0i> = 0
    <c1> = 0
    <c1i> = 0
    <Mu_ssd> = 0
    <Sigma_ssd> = 0
    <innerangle> = 0
    <outerangle> = 0
  <EndBdry>
  <BeginBdry>
    <BdryName> = "APs1"
    <BdryType> = 5
    <A_0> = 0
    <A_1> = 0
    <A_2> = 0
    <Phi> = 0
    <c0> = 0
    <c0i> = 0
    <c1> = 0
    <c1i> = 0
    <Mu_ssd> = 0
    <Sigma_ssd> = 0
    <innerangle> = 0
    <outerangle> = 0
  <EndBdry>
  <BeginBdry>
    <BdryName> = "APs2"
    <BdryType> = 5
    <A_0> = 0
    <A_1> = 0
    <A_2> = 0
    <Phi> = 0
    <c0> = 0
    <c0i> = 0
    <c1> = 0
    <c1i> = 0
    <Mu_ssd> = 0
    <Sigma_ssd> = 0
    <innerangle> = 0
    <outerangle> = 0
  <EndBdry>
  <BeginBdry>
    <BdryName> = "APs3"
    <BdryType> = 5
    <A_0> = 0
    <A_1> = 0
    <A_2> = 0
    <Phi> = 0
    <c0> = 0
    <c0i> = 0
    <c1> = 0
    <c1i> = 0
    <Mu_ssd> = 0
    <Sigma_ssd> = 0
    <innerangle> = 0
    <outerangle> = 0
  <EndBdry>
  <BeginBdry>
    <BdryName> = "AGap"
    <BdryType> = 7
    <A_0> = 0
    <A_1> = 0
    <A_2> = 0
    <Phi> = 0
    <c0> = 0
    <c0i> = 0
    <c1> = 0
    <c1i> = 0
    <Mu_ssd> = 0
    <Sigma_ssd> = 0
    <innerangle> = 1
    <outerangle> = 0
  <EndBdry>
[BlockProps]  = 7
  <BeginBlock>
    <BlockName> = "M600-50A"
    <Mu_x> = 1
    <Mu_y> = 1
    <H_c> = 0
    <H_cAngle> = 0
    <J_re> = 0
    <J_im> = 0
    <Sigma> = 0
    <d_lam> = 0
    <Phi_h> = 0
    <Phi_hx> = 0
    <Phi_hy> = 0
    <LamType> = 0
    <LamFill> = 1
    <NStrands> = 0
    <WireD> = 0
    <BHPoints> = 208
      0	0
      0.0061294119999999999	8.2635015680000006
      0.012398954	15.54584049
      0.018188152999999999	21.42337126
      0.023698273999999998	26.396066560000001
      0.028962854999999999	30.670770340000001
      0.034031080999999998	34.409892589999998
      0.038937833999999998	37.72521158
      0.043710287	40.697869570000002
      0.048369641999999997	43.388214720000001
      0.052932743999999997	45.842257519999997
      0.057413198999999998	48.095830579999998
      0.061822165999999998	50.17736026
      0.066168929000000001	52.109762629999999
      0.070461307000000001	53.911772880000001
      0.074705967999999998	55.598898519999999
      0.078908651999999996	57.184116670000002
      0.083074354000000003	58.67839326
      0.087207454000000004	60.091076020000003
      0.091311829999999997	61.430196219999999
      0.095390935999999996	62.702703470000003
      0.099447875000000005	63.914650479999999
      0.10348545000000001	65.071340269999993
      0.107506212	66.177444339999994
      0.111512495	67.237098649999993
      0.115506446	68.253982050000005
      0.119490053	69.231381029999994
      0.123465163	70.172243330000001
      0.127433505	71.079222909999999
      0.131396704	71.954717669999994
      0.13535628999999999	72.800901379999999
      0.139313718	73.619750830000001
      0.14327037200000001	74.413069070000006
      0.147227575	75.182505329999998
      0.151186599	75.929572239999999
      0.15514867099999999	76.655660710000006
      0.15911497799999999	77.362052919999996
      0.16308667299999999	78.049933670000001
      0.167064883	78.720400249999997
      0.171050709	79.374471249999999
      0.17504523399999999	80.013094219999999
      0.17904952399999999	80.637152520000001
      0.183064634	81.247471390000001
      0.18709161099999999	81.844823349999999
      0.19113149500000001	82.429933079999998
      0.19518532499999999	83.003481679999993
      0.19925414	83.566110629999997
      0.203338983	84.118425299999998
      0.20744090200000001	84.6609981
      0.21156095499999999	85.194371430000004
      0.21570021	85.719060249999998
      0.21985974999999999	86.23555451
      0.224040674	86.744321339999999
      0.228244101	87.245807119999995
      0.232471172	87.740439260000002
      0.23672305199999999	88.228628009999994
      0.241000933	88.710768049999999
      0.245306038	89.187239969999993
      0.249639624	89.658411700000002
      0.25400298399999999	90.124639849999994
      0.258397449	90.586270990000003
      0.26282439699999999	91.043642790000007
      0.267285249	91.497085290000001
      0.27178147899999999	91.946921900000007
      0.27631461499999999	92.393470609999994
      0.28088624499999998	92.837044969999994
      0.28549801899999999	93.277955219999996
      0.29015165799999998	93.716509279999997
      0.294848956	94.153013889999997
      0.299591787	94.587775629999996
      0.30438211199999998	95.021102040000002
      0.30922198299999998	95.45330276
      0.31411355600000002	95.884690719999995
      0.31905909100000002	96.315583349999997
      0.324060968	96.746303900000001
      0.32912169099999999	97.177182860000002
      0.33424390300000001	97.608559369999995
      0.33943039400000002	98.040782919999998
      0.34468411100000002	98.474215020000003
      0.35000818	98.909231149999997
      0.35540591100000002	99.346222819999994
      0.36088082199999999	99.785599880000007
      0.366436651	100.2277931
      0.37207738099999998	100.67325700000001
      0.37780725700000001	101.1224732
      0.38363081700000001	101.57595360000001
      0.389552911	102.03424510000001
      0.39557873700000001	102.4979336
      0.401713873	102.9676498
      0.40796431599999999	103.44407510000001
      0.41433652900000001	103.9279489
      0.420837509	104.4200783
      0.42747497499999998	104.9213567
      0.43425898400000001	105.43288579999999
      0.44146202099999998	105.9749185
      0.44856258700000001	106.5079061
      0.45587690400000003	107.05707719999999
      0.46342101400000002	107.62377619999999
      0.47120716099999999	108.2090887
      0.47924850299999999	108.8142005
      0.48755929799999997	109.4404164
      0.496155022	110.0891769
      0.50505251799999995	110.7620768
      0.51427015700000001	111.4608879
      0.52382802100000003	112.1875854
      0.53374812500000002	112.944379
      0.54405466000000002	113.73375040000001
      0.55477427700000004	114.558498
      0.56593642099999997	115.4217907
      0.57757370900000005	116.3272333
      0.58972237000000005	117.2789456
      0.60242275199999995	118.28165920000001
      0.61571989900000001	119.3408371
      0.62966422099999997	120.4628209
      0.64431222899999996	121.65501310000001
      0.65972736300000001	122.92610569999999
      0.67598086099999999	124.28636400000001
      0.69315263800000004	125.74798269999999
      0.71133206000000004	127.3255305
      0.73061842099999996	129.03650049999999
      0.75112078999999998	130.90198509999999
      0.772956635	132.94748089999999
      0.79624826999999998	135.20380520000001
      0.82111564500000001	137.70804709999999
      0.84766332799999999	140.50436830000001
      0.87595905799999996	143.6442744
      0.90600166900000001	147.18571779999999
      0.93767904199999996	151.19014369999999
      0.97072398500000001	155.71669249999999
      1.0046871660000001	160.81373919999999
      1.0389539999999999	166.5100477
      1.0728218	172.80985770000001
      1.1056189649999999	179.69557180000001
      1.1368151129999999	187.13741469999999
      1.166076154	195.10516089999999
      1.1932571599999999	203.57694960000001
      1.2183581130000001	212.54344710000001
      1.2414717689999999	222.00841339999999
      1.262740478	231.98749659999999
      1.2823264919999999	242.50660869999999
      1.3003940249999999	253.6005657
      1.317099609	265.31223169999998
      1.332587655	277.69219570000001
      1.346989049	290.79894300000001
      1.360421377	304.69948410000001
      1.3729899480000001	319.47042970000001
      1.3847891750000001	335.19953839999999
      1.395904035	351.98780690000001
      1.406411522	369.95222330000001
      1.416382027	389.22936779999998
      1.4258806550000001	409.98013700000001
      1.4349684949999999	432.3959911
      1.443703884	456.70731569999998
      1.452143746	483.19477810000001
      1.460345062	512.205018
      1.468366627	544.17275689999997
      1.476271267	579.65265699999998
      1.484128812	619.36640990000001
      1.4920203320000001	664.27439319999996
      1.5000444559999999	715.68841520000001
      1.5083273020000001	775.45608200000004
      1.517038858	846.27605440000002
      1.52642144	932.26565330000005
      1.5368418420000001	1040.044543
      1.5488919160000001	1180.938134
      1.5635876129999999	1375.704356
      1.5827254589999999	1664.518061
      1.609038255	2120.3213700000001
      1.6429877180000001	2803.4219309999999
      1.6763000130000001	3588.174364
      1.7038913950000001	4346.5592559999996
      1.7268422349999999	5076.0393119999999
      1.746445904	5791.6494789999997
      1.7635818270000001	6506.5344940000004
      1.778835427	7231.1495919999998
      1.792609184	7974.1327339999998
      1.805191346	8743.1111569999994
      1.8167966790000001	9545.295204
      1.8275911469999999	10387.927960000001
      1.837707435	11278.663500000001
      1.8472551399999999	12225.930109999999
      1.8563277979999999	13239.325269999999
      1.865008022	14330.08987
      1.873371527	15511.71947
      1.8814906259999999	16800.793989999998
      1.88943763	18218.15107
      1.8972886259999999	19790.607090000001
      1.905128269	21553.57647
      1.913056538	23555.22162
      1.921199232	25863.341659999998
      1.92972568	28577.465530000001
      1.938881257	31851.611560000001
      1.949053186	35941.14198
      1.960921235	41311.621829999996
      1.975868577	48939.738250000002
      1.9972472800000001	61282.289870000001
      2.0280781640000001	81252.957920000001
      2.0737002590000002	113566.1776
      2.1433819129999998	165850.06529999999
      2.250195926	248560.18210000001
      2.3541325240000002	331270.29889999999
      2.4580691219999999	413980.41570000001
      2.5620057200000002	496690.53249999997
      2.665942319	579400.64930000005
      2.7698789170000002	662110.76610000001
      2.873815515	744820.88289999997
      2.9777521130000002	827530.99970000004
      3.081688711	910241.1165
  <EndBlock>
  <BeginBlock>
    <BlockName> = "ShaftAir"
    <Mu_x> = 1
    <Mu_y> = 1
    <H_c> = 0
    <H_cAngle> = 0
    <J_re> = 0
    <J_im> = 0
    <Sigma> = 0
    <d_lam> = 0
    <Phi_h> = 0
    <Phi_hx> = 0
    <Phi_hy> = 0
    <LamType> = 0
    <LamFill> = 1
    <NStrands> = 0
    <WireD> = 0
    <BHPoints> = 3
      -100	-7.9577471545947675e-011
      0	0
      100	7.9577471545947675e-011
  <EndBlock>
  <BeginBlock>
    <BlockName> = "Copper"
    <Mu_x> = 1
    <Mu_y> = 1
    <H_c> = 0
    <H_cAngle> = 0
    <J_re> = 0
    <J_im> = 0
    <Sigma> = 58
    <d_lam> = 0
    <Phi_h> = 0
    <Phi_hx> = 0
    <Phi_hy> = 0
    <LamType> = 0
    <LamFill> = 1
    <NStrands> = 0
    <WireD> = 0
    <BHPoints> = 0
  <EndBlock>
  <BeginBlock>
    <BlockName> = "Aluminium"
    <Mu_x> = 1
    <Mu_y> = 1
    <H_c> = 0
    <H_cAngle> = 0
    <J_re> = 0
    <J_im> = 0
    <Sigma> = 29
    <d_lam> = 0
    <Phi_h> = 0
    <Phi_hx> = 0
    <Phi_hy> = 0
    <LamType> = 0
    <LamFill> = 1
    <NStrands> = 0
    <WireD> = 0
    <BHPoints> = 0
  <EndBlock>
  <BeginBlock>
    <BlockName> = "Air"
    <Mu_x> = 1
    <Mu_y> = 1
    <H_c> = 0
    <H_cAngle> = 0
    <J_re> = 0
    <J_im> = 0
    <Sigma> = 0
    <d_lam> = 0
    <Phi_h> = 0
    <Phi_hx> = 0
    <Phi_hy> = 0
    <LamType> = 0
    <LamFill> = 1
    <NStrands> = 0
    <WireD> = 0
    <BHPoints> = 0
  <EndBlock>
  <BeginBlock>
    <BlockName> = "DW235"
    <Mu_x> = 1
    <Mu_y> = 1
    <H_c> = 0
    <H_cAngle> = 0
    <J_re> = 0
    <J_im> = 0
    <Sigma> = 0
    <d_lam> = 0
    <Phi_h> = 0
    <Phi_hx> = 0
    <Phi_hy> = 0
    <LamType> = 0
    <LamFill> = 1
    <NStrands> = 0
    <WireD> = 0
    <BHPoints> = 0
  <EndBlock>
  <BeginBlock>
    <BlockName> = "Air"
    <Mu_x> = 1
    <Mu_y> = 1
    <H_c> = 0
    <H_cAngle> = 0
    <J_re> = 0
    <J_im> = 0
    <Sigma> = 0
    <d_lam> = 0
    <Phi_h> = 0
    <Phi_hx> = 0
    <Phi_hy> = 0
    <LamType> = 0
    <LamFill> = 1
    <NStrands> = 0
    <WireD> = 0
    <BHPoints> = 0
  <EndBlock>
[CircuitProps]  = 6
  <BeginCircuit>
    <CircuitName> = "fase1"
    <TotalAmps_re> = 363.10262280648925
    <TotalAmps_im> = 0
    <CircuitType> = 1
  <EndCircuit>
  <BeginCircuit>
    <CircuitName> = "fase2"
    <TotalAmps_re> = -254.04218839394602
    <TotalAmps_im> = -0
    <CircuitType> = 1
  <EndCircuit>
  <BeginCircuit>
    <CircuitName> = "fase3"
    <TotalAmps_re> = -109.06043441254306
    <TotalAmps_im> = -0
    <CircuitType> = 1
  <EndCircuit>
  <BeginCircuit>
    <CircuitName> = "fase1n"
    <TotalAmps_re> = -363.10262280648925
    <TotalAmps_im> = -0
    <CircuitType> = 1
  <EndCircuit>
  <BeginCircuit>
    <CircuitName> = "fase2n"
    <TotalAmps_re> = 254.04218839394602
    <TotalAmps_im> = 0
    <CircuitType> = 1
  <EndCircuit>
  <BeginCircuit>
    <CircuitName> = "fase3n"
    <TotalAmps_re> = 109.06043441254306
    <TotalAmps_im> = 0
    <CircuitType> = 1
  <EndCircuit>
[NumPoints] = 131
754.51883732844908	23.711709716603828	0	2
752.68171614197649	23.653975857443861	0	2
754.35469955055964	28.934658496552281	0	2
757.07584512595508	29.105858464977032	0	2
758.46674586594827	30.648279693516976	0	2
758.06583634487311	31.009805675260278	0	2
752.4616303623061	30.657218920646155	0	2
749.56054617214852	23.555889139605529	0	2
745.77148372504882	23.436813055088102	0	2
749.24369784601504	33.638166356262232	0	2
754.91725299929328	33.995116190875962	0	2
758.15308491875805	37.616771004748479	0	2
757.75674715561104	37.972553535108624	0	2
745.34014378428981	37.190464044424495	0	2
743.70815835977737	23.371970443225084	0	2
737.96715465205057	23.1915521333502	0	2
743.21224706323778	39.139443470131738	0	2
753.56868779789579	39.791403490786955	0	2
757.77759098532476	44.544856416101261	0	2
756.44280203237065	45.727583200962869	0	2
737.29736695125234	44.522474999228848	0	2
754.68297510633852	18.488760936655375	0	2
757.40950085748841	18.488760936655368	0	2
758.89450640286532	17.036718704155213	0	2
758.51708838936793	16.650732794241566	0	2
752.90180192164689	16.650732794241566	0	2
749.877394498282	13.473611922948823	0	2
755.56216725202682	13.473611922948823	0	2
759.01901958367296	10.062283184895863	0	2
758.64403351211729	9.684063305002649	0	2
746.20282366580773	9.6831620657517075	0	2
744.20406965631696	7.6044974163184325	0	2
754.58101122929816	7.604884648595263	0	2
759.07928468406624	3.1242913083714257	0	2
757.82026766126921	1.8612076480920763	0	2
738.63694235284891	1.8606292674715554	0	2
760	0	0	20
228.56999999999999	0	0	2
758.50031360548644	47.720794842278167	0	20
228.11896931685001	14.352029048815158	0	2
0	0	0	2
800	0	0	1
761	0	0	20
798.4213827426172	50.232415623450699	0	1
759.49834033391471	47.783585361807475	0	20
766.46800971318407	5.2086456887370236	0	1
766.47426865613568	4.013286561536491	0	1
766.88025603982305	6.1049334854760584	0	1
789.39553248316838	6.3407215281163474	0	1
791.62914839475286	4.1449984075049962	0	1
789.41864809224421	1.9260057361607834	0	1
766.90213705431211	1.9260057361607825	0	1
766.48052759908728	2.8179274343359584	0	1
779.06142740478356	1.926005736160783	0	1
779.03887968868969	6.232262949032946	0	1
760.98237062428393	5.1799226871475224	0	1
760.99488851018714	2.7892044327464571	0	1
766.37143997270641	13.234647625114134	0	1
766.39021611519763	12.039419582512371	0	1
766.77427796330426	14.135203232359867	0	1
789.28585075827675	14.606753460824482	0	1
791.54233733778176	12.434540676729718	0	1
789.355195050617	10.192521792204833	0	1
766.83991860727156	9.95673374956454	0	1
766.40899225768885	10.844191539910609	0	1
778.99854225613819	10.084063213121429	0	1
778.93090158046766	14.389848196363094	0	1
760.8864024459499	13.148481770146432	0	1
760.92395473093234	10.758025684942908	0	1
766.19082896761461	21.25919823323823	0	1
766.2221202506297	20.064232345459104	0	1
766.58421444644603	22.163922894919988	0	1
789.08961494540642	22.871183598412486	0	1
791.36872474365009	20.722719358444699	0	1
789.205180316628	18.457920123375086	0	1
766.69360752165539	17.986369894910467	0	1
766.25341153364502	18.869266457679977	0	1
778.8502311388188	18.241014858913694	0	1
778.73750492113402	22.545855434679659	0	1
760.7069944991772	21.115598973949325	0	1
760.76957706520761	18.725667198391076	0	1
765.92619650394045	29.281417530706658	0	1
765.96999949603799	28.086844839225812	0	1
766.31008633185479	30.190212033569974	0	1
788.80684656402559	31.133105652984113	0	1
791.10832965093539	29.008625560458206	0	1
788.96862034108335	26.721294335601957	0	1
766.46321984212273	26.014033632109456	0	1
766.01380248813541	26.892272147744958	0	1
778.61651031681072	26.395966171869123	0	1
778.45871091881156	30.699390265879117	0	1
760.44416645806905	29.080400614373552	0	1
760.5317724422639	26.691255231411851	0	1
765.57757160161611	37.300425790771264	0	1
765.63388149930404	36.106377293945918	0	1
765.95192368076755	38.213190475257704	0	1
788.43757662287385	39.391613611682672	0	1
790.76118061489376	37.291350639781513	0	1
788.64554106544995	34.981738256783302	0	1
766.14878083327903	34.038844637369159	0	1
765.69019139699196	34.912328797120573	0	1
778.2974054202358	34.548022869678299	0	1
778.09455014640457	38.84955856298523	0	1
760.09794714468194	37.04201326116408	0	1
760.21056694005779	34.653916267513388	0	1
765.14499249129051	45.315343638810319	0	1
765.21380311955409	44.121950277513854	0	1
765.50976576975506	46.231978409986311	0	1
787.98184561656137	47.645801836045578	0	1
790.32731570432929	45.569986302271836	0	1
788.23597791901102	43.23834603615645	0	1
765.75032497690472	42.059922899731475	0	1
765.28261374781755	42.928556916217396	0	1
777.89295144254174	42.696290987458994	0	1
777.6450625382455	46.995466568200186	0	1
759.66837452586492	44.999563833774978	0	1
759.80599578239219	42.612777111182062	0	1
799.95613549240966	8.377427292996634	0	1
760.95827388715475	7.9690277124630482	0	1
799.82454677987641	16.753935906685566	0	1
760.83310012435743	15.937181531234645	0	1
799.60524829258532	25.128607262502634	0	1
760.62449243832179	23.903587658455631	0	1
799.29826407908672	33.500522983359694	0	1
760.33247370523122	31.867372487920907	0	1
798.90362780365911	41.868764994355054	0	1
759.95707594823068	39.827662700880246	0	1
760.66666666666663	0	0	20
759.16566475777188	47.762655188631037	0	20
760.33333333333337	0	0	20
758.83298918162916	47.741725015454605	0	20
[NumSegments] = 108
0	1	0.91428571428571415	0	0	2
2	0	0.91428571428571415	0	0	2
3	2	0.91428571428571415	0	0	2
6	5	0.91428571428571415	0	0	2
1	6	0.91428571428571415	0	0	2
7	8	0.91428571428571415	0	0	2
9	7	0.91428571428571415	0	0	2
10	9	0.91428571428571415	0	0	2
13	12	0.91428571428571415	0	0	2
8	13	0.91428571428571415	0	0	2
14	15	0.91428571428571415	0	0	2
16	14	0.91428571428571415	0	0	2
17	16	0.91428571428571415	0	0	2
20	19	0.91428571428571415	0	0	2
15	20	0.91428571428571415	0	0	2
21	0	0.91428571428571415	0	0	2
22	21	0.91428571428571415	0	0	2
25	24	0.91428571428571415	0	0	2
1	25	0.91428571428571415	0	0	2
26	7	0.91428571428571415	0	0	2
27	26	0.91428571428571415	0	0	2
30	29	0.91428571428571415	0	0	2
8	30	0.91428571428571415	0	0	2
31	14	0.91428571428571415	0	0	2
32	31	0.91428571428571415	0	0	2
35	34	0.91428571428571415	0	0	2
15	35	0.91428571428571415	0	0	2
36	37	-1	4	0	2
39	38	-1	4	0	2
37	40	-1	2	0	2
40	39	-1	2	0	2
41	42	-1	10	0	1
44	43	-1	10	0	1
45	46	0.91428571428571415	0	0	1
47	45	0.91428571428571415	0	0	1
48	54	0.91428571428571415	0	0	1
51	53	0.91428571428571415	0	0	1
52	51	0.91428571428571415	0	0	1
46	52	0.91428571428571415	0	0	1
53	50	0.91428571428571415	0	0	1
54	47	0.91428571428571415	0	0	1
53	54	0.91428571428571415	0	0	1
45	55	0.91428571428571415	0	0	1
56	52	0.91428571428571415	0	0	1
57	58	0.91428571428571415	0	0	1
59	57	0.91428571428571415	0	0	1
60	66	0.91428571428571415	0	0	1
63	65	0.91428571428571415	0	0	1
64	63	0.91428571428571415	0	0	1
58	64	0.91428571428571415	0	0	1
65	62	0.91428571428571415	0	0	1
66	59	0.91428571428571415	0	0	1
65	66	0.91428571428571415	0	0	1
57	67	0.91428571428571415	0	0	1
68	64	0.91428571428571415	0	0	1
69	70	0.91428571428571415	0	0	1
71	69	0.91428571428571415	0	0	1
72	78	0.91428571428571415	0	0	1
75	77	0.91428571428571415	0	0	1
76	75	0.91428571428571415	0	0	1
70	76	0.91428571428571415	0	0	1
77	74	0.91428571428571415	0	0	1
78	71	0.91428571428571415	0	0	1
77	78	0.91428571428571415	0	0	1
69	79	0.91428571428571415	0	0	1
80	76	0.91428571428571415	0	0	1
81	82	0.91428571428571415	0	0	1
83	81	0.91428571428571415	0	0	1
84	90	0.91428571428571415	0	0	1
87	89	0.91428571428571415	0	0	1
88	87	0.91428571428571415	0	0	1
82	88	0.91428571428571415	0	0	1
89	86	0.91428571428571415	0	0	1
90	83	0.91428571428571415	0	0	1
89	90	0.91428571428571415	0	0	1
81	91	0.91428571428571415	0	0	1
92	88	0.91428571428571415	0	0	1
93	94	0.91428571428571415	0	0	1
95	93	0.91428571428571415	0	0	1
96	102	0.91428571428571415	0	0	1
99	101	0.91428571428571415	0	0	1
100	99	0.91428571428571415	0	0	1
94	100	0.91428571428571415	0	0	1
101	98	0.91428571428571415	0	0	1
102	95	0.91428571428571415	0	0	1
101	102	0.91428571428571415	0	0	1
93	103	0.91428571428571415	0	0	1
104	100	0.91428571428571415	0	0	1
105	106	0.91428571428571415	0	0	1
107	105	0.91428571428571415	0	0	1
108	114	0.91428571428571415	0	0	1
111	113	0.91428571428571415	0	0	1
112	111	0.91428571428571415	0	0	1
106	112	0.91428571428571415	0	0	1
113	110	0.91428571428571415	0	0	1
114	107	0.91428571428571415	0	0	1
113	114	0.91428571428571415	0	0	1
105	115	0.91428571428571415	0	0	1
116	112	0.91428571428571415	0	0	1
117	118	0.91428571428571415	0	0	1
119	120	0.91428571428571415	0	0	1
121	122	0.91428571428571415	0	0	1
123	124	0.91428571428571415	0	0	1
125	126	0.91428571428571415	0	0	1
127	42	0.091428571428571415	7	0	20
128	44	0.091428571428571415	7	0	20
129	36	0.091428571428571415	5	0	20
130	38	0.091428571428571415	5	0	20
[NumArcSegments] = 52
3	4	88.713960718204149	8.8167208458788959	0	0	2	8.8167208458788959
4	5	91.286039281777519	10	0	0	2	10
10	11	89.240476755916973	3.7881362185338774	0	0	2	3.7881362185338774
11	12	90.759523243927987	10	0	0	2	10
17	18	89.764177868211661	2.9110965387677883	0	0	2	2.9110965387677883
18	19	90.235822131791252	10	0	0	2	10
23	22	88.713960718203069	8.8167208453268859	0	0	2	8.8167208453268859
24	23	91.286039281784582	10	0	0	2	10
28	27	89.240476755917356	3.7881362184993974	0	0	2	3.7881362184993974
29	28	90.759523244224681	10	0	0	2	10
33	32	89.764177868210368	2.9110965387578913	0	0	2	2.9110965387578913
34	33	90.235822131784658	10	0	0	2	10
36	38	3.5999999999999996	0.017231813387393179	0	0	2	0.017231813387393179
37	39	3.6000000000000001	0.057296137613942401	0	0	2	0.057296137613942401
41	117	0.59999999999999998	0.91428571428571415	1	0	1	0.059999999999999998
42	56	0.20999999999999999	0.017209169742994499	0	0	1	0.017209169742994499
49	48	90.219698416511619	5.9244877200589672	0	0	1	5.9244877200589672
50	49	90.219698416507995	5.924487720058556	0	0	1	5.924487720058556
55	118	0.21000000000000005	0.017209169742994499	0	0	1	0.017209169742994499
56	55	0.17999999999999994	0.017209169742994499	0	0	1	0.017209169742994499
61	60	90.219698416513253	5.9244877200589476	0	0	1	5.9244877200589476
62	61	90.219698416507242	5.9244877200585551	0	0	1	5.9244877200585551
67	120	0.21000000000000002	0.017209169742994499	0	0	1	0.017209169742994499
68	67	0.17999999999999994	0.017209169742994499	0	0	1	0.017209169742994499
73	72	90.219698416509416	5.924487720058714	0	0	1	5.924487720058714
74	73	90.219698416508663	5.9244877200585657	0	0	1	5.9244877200585657
79	122	0.21000000000000038	0.017209169742994499	0	0	1	0.017209169742994499
80	79	0.17999999999999999	0.017209169742994499	0	0	1	0.017209169742994499
85	84	90.219698416511505	5.9244877200588819	0	0	1	5.9244877200588819
86	85	90.219698416506589	5.9244877200585515	0	0	1	5.9244877200585515
91	124	0.20999999999999944	0.017209169742994499	0	0	1	0.017209169742994499
92	91	0.17999999999999983	0.017209169742994499	0	0	1	0.017209169742994499
97	96	90.219698416511349	5.9244877200593349	0	0	1	5.9244877200593349
98	97	90.219698416507683	5.9244877200585302	0	0	1	5.9244877200585302
103	126	0.20999999999999983	0.017209169742994499	0	0	1	0.017209169742994499
104	103	0.18000000000000022	0.017209169742994499	0	0	1	0.017209169742994499
109	108	90.219698416512031	5.9244877200591333	0	0	1	5.9244877200591333
110	109	90.219698416510141	5.9244877200585755	0	0	1	5.9244877200585755
115	44	0.20999999999999938	0.017209169742994499	0	0	1	0.017209169742994499
116	115	0.18000000000000022	0.017209169742994499	0	0	1	0.017209169742994499
117	119	0.59999999999999964	0.91428571428571415	1	0	1	0.10000000000000001
118	68	0.20999999999999983	0.017209169742994499	0	0	1	0.017209169742994499
119	121	0.59999999999999987	0.91428571428571415	1	0	1	0.10000000000000001
120	80	0.21000000000000013	0.017209169742994499	0	0	1	0.017209169742994499
121	123	0.59999999999999931	0.91428571428571415	1	0	1	0.10000000000000001
122	92	0.2100000000000003	0.017209169742994499	0	0	1	0.017209169742994499
123	125	0.60000000000000009	0.91428571428571415	1	0	1	0.12
124	104	0.21000000000000027	0.017209169742994499	0	0	1	0.017209169742994499
125	43	0.60000000000000087	0.91428571428571415	1	0	1	0.059999999999999998
126	116	0.21000000000000069	0.017209169742994499	0	0	1	0.017209169742994499
127	128	3.6000000000000001	0.091428571428571415	11	0	20	0.01
129	130	3.6000000000000001	0.091428571428571415	11	0	20	0.01
[NumHoles] = 0
[NumBlockLabels] = 34
757.86947577892556	30.254647944584761	7	0.91428571428571415	0	0	2	1	0
756.94180936395117	36.527528726493351	7	0.91428571428571415	0	0	2	1	0
755.92962409347786	43.353968442858346	7	0.91428571428571415	0	0	2	1	0
758.27369854990729	17.39207081168405	7	0.91428571428571415	0	0	2	1	0
757.74233016939581	11.072737187958731	7	0.91428571428571415	0	0	2	1	0
757.16029779082101	4.1961542478594573	7	0.91428571428571415	0	0	2	1	0
483.21218457742293	15.185554667918991	1	0.91428571428571415	0	0	22	1	0
114.22860725139763	3.5897786012438919	7	0.91428571428571415	0	0	2	1	0
772.76221110143615	4.0462104520666777	3	0.91428571428571415	1	0	1	1	0
785.33809599203721	4.1120582331270512	3	0.91428571428571415	1	0	1	1	0
763.73191852821367	3.9989275186233959	7	0.91428571428571415	0	0	10	1	0
795.80909109634706	4.1668847363203296	1	0.91428571428571415	0	0	12	1	0
772.67746901675036	12.138187643627315	3	0.91428571428571415	1	0	1	1	0
785.25197481985572	12.335723765857207	3	0.91428571428571415	1	0	1	1	0
763.64816671687061	11.996344028403952	7	0.91428571428571415	0	0	10	1	0
795.72182166155505	12.500197263093128	1	0.91428571428571415	0	0	12	1	0
772.50799414030314	20.22883374612789	3	0.91428571428571415	3	0	1	-1	0
785.07974191964979	20.558036547465466	3	0.91428571428571415	3	0	1	-1	0
763.48067227851436	19.992445003875286	7	0.91428571428571415	0	0	10	1	0
795.54729236204787	20.832139002371605	1	0.91428571428571415	0	0	12	1	0
772.25380505692453	28.317261529049965	3	0.91428571428571415	3	0	1	-1	0
784.82141617869786	28.778094908698279	3	0.91428571428571415	3	0	1	-1	0
763.22945358079767	27.986353582457564	7	0.91428571428571415	0	0	10	1	0
795.28552233693006	29.16179626285161	1	0.91428571428571415	0	0	12	1	0
771.91492964131214	36.402584005138841	3	0.91428571428571415	2	0	1	1	0
784.47702592532835	36.994997427524694	3	0.91428571428571415	2	0	1	1	0
762.89453817268156	35.977193141991989	7	0.91428571428571415	0	0	10	1	0
794.93654029223489	37.48825560374781	1	0.91428571428571415	0	0	12	1	0
771.49140505497382	44.483914527671722	3	0.91428571428571415	2	0	1	1	0
784.04660892581353	45.207843027987465	3	0.91428571428571415	2	0	1	1	0
762.47596278141475	43.964087396872273	7	0.91428571428571415	0	0	10	1	0
794.50038449777583	45.81060393496282	1	0.91428571428571415	0	0	12	1	0
760.45790801159421	23.89835253194261	7	0.091428571428571415	0	0	20	1	0
759.79157030468355	23.877412025890521	7	0.091428571428571415	0	0	20	1	0
